/*---------------------------------------------------------------------------*\
  =========                 |
  \\      /  F ield         | OpenFOAM: The Open Source CFD Toolbox
   \\    /   O peration     | Website:  https://openfoam.org
    \\  /    A nd           | Version:  7
     \\/     M anipulation  |
\*---------------------------------------------------------------------------*/
Build  : 7
Exec   : icoFoam
Date   : Feb 10 2025
Time   : 15:58:50
Host   : "c202-032.frontera.tacc.utexas.edu"
PID    : 184103
I/O    : uncollated
Case   : /work2/10531/andressuniaga/frontera/COE-347-SP25/run/cavity
nProcs : 1
sigFpe : Enabling floating point exception trapping (FOAM_SIGFPE).
fileModificationChecking : Monitoring run-time modified files using timeStampMaster (fileModificationSkew 10)
allowSystemOperations : Allowing user-supplied system call operations

// * * * * * * * * * * * * * * * * * * * * * * * * * * * * * * * * * * * * * //
Create time

Create mesh for time = 0

Reading transportProperties

Reading field p

Reading field U

Reading/calculating face flux field phi


Starting time loop

Time = 0.00125

Courant Number mean: 0 max: 0
smoothSolver:  Solving for Ux, Initial residual = 1, Final residual = 7.13931e-06, No Iterations 10
smoothSolver:  Solving for Uy, Initial residual = 0, Final residual = 0, No Iterations 0
DICPCG:  Solving for p, Initial residual = 1, Final residual = 0.0430386, No Iterations 96
time step continuity errors : sum local = 1.05023e-05, global = 2.91995e-20, cumulative = 2.91995e-20
DICPCG:  Solving for p, Initial residual = 0.435209, Final residual = 6.50854e-07, No Iterations 139
time step continuity errors : sum local = 2.99908e-10, global = -5.2871e-20, cumulative = -2.36715e-20
ExecutionTime = 0.07 s  ClockTime = 1 s

Time = 0.0025

Courant Number mean: 0.0219306 max: 0.499531
smoothSolver:  Solving for Ux, Initial residual = 0.225309, Final residual = 5.89445e-06, No Iterations 10
smoothSolver:  Solving for Uy, Initial residual = 0.313363, Final residual = 5.46391e-06, No Iterations 11
DICPCG:  Solving for p, Initial residual = 0.288588, Final residual = 0.0135883, No Iterations 94
time step continuity errors : sum local = 5.8365e-06, global = 1.97024e-20, cumulative = -3.96909e-21
DICPCG:  Solving for p, Initial residual = 0.191558, Final residual = 9.91122e-07, No Iterations 128
time step continuity errors : sum local = 4.51003e-10, global = 1.56231e-20, cumulative = 1.1654e-20
ExecutionTime = 0.1 s  ClockTime = 1 s

Time = 0.00375

Courant Number mean: 0.0350777 max: 0.685481
smoothSolver:  Solving for Ux, Initial residual = 0.103876, Final residual = 8.17786e-06, No Iterations 9
smoothSolver:  Solving for Uy, Initial residual = 0.14629, Final residual = 7.16248e-06, No Iterations 10
DICPCG:  Solving for p, Initial residual = 0.125878, Final residual = 0.00471164, No Iterations 94
time step continuity errors : sum local = 2.04289e-06, global = -5.91331e-20, cumulative = -4.74791e-20
DICPCG:  Solving for p, Initial residual = 0.0852512, Final residual = 8.96769e-07, No Iterations 132
time step continuity errors : sum local = 3.99401e-10, global = 4.23131e-20, cumulative = -5.166e-21
ExecutionTime = 0.13 s  ClockTime = 1 s

Time = 0.005

Courant Number mean: 0.0441616 max: 0.764928
smoothSolver:  Solving for Ux, Initial residual = 0.0639438, Final residual = 5.55118e-06, No Iterations 9
smoothSolver:  Solving for Uy, Initial residual = 0.0900525, Final residual = 4.53458e-06, No Iterations 10
DICPCG:  Solving for p, Initial residual = 0.0700327, Final residual = 0.00279175, No Iterations 94
time step continuity errors : sum local = 1.24488e-06, global = 4.70331e-20, cumulative = 4.18671e-20
DICPCG:  Solving for p, Initial residual = 0.048389, Final residual = 9.41543e-07, No Iterations 129
time step continuity errors : sum local = 4.27112e-10, global = 2.13856e-20, cumulative = 6.32527e-20
ExecutionTime = 0.16 s  ClockTime = 1 s

Time = 0.00625

Courant Number mean: 0.0512727 max: 0.805606
smoothSolver:  Solving for Ux, Initial residual = 0.0459142, Final residual = 4.28964e-06, No Iterations 9
smoothSolver:  Solving for Uy, Initial residual = 0.064074, Final residual = 8.82568e-06, No Iterations 9
DICPCG:  Solving for p, Initial residual = 0.0488126, Final residual = 0.00220869, No Iterations 47
time step continuity errors : sum local = 1.2191e-06, global = 2.7054e-20, cumulative = 9.03067e-20
DICPCG:  Solving for p, Initial residual = 0.0335986, Final residual = 9.12325e-07, No Iterations 128
time step continuity errors : sum local = 4.24489e-10, global = 1.86052e-20, cumulative = 1.08912e-19
ExecutionTime = 0.18 s  ClockTime = 1 s

Time = 0.0075

Courant Number mean: 0.0571448 max: 0.830029
smoothSolver:  Solving for Ux, Initial residual = 0.035787, Final residual = 9.61218e-06, No Iterations 8
smoothSolver:  Solving for Uy, Initial residual = 0.0500534, Final residual = 6.99082e-06, No Iterations 9
DICPCG:  Solving for p, Initial residual = 0.0397369, Final residual = 0.00186308, No Iterations 46
time step continuity errors : sum local = 9.88797e-07, global = -4.52591e-20, cumulative = 6.36528e-20
DICPCG:  Solving for p, Initial residual = 0.0271349, Final residual = 9.4582e-07, No Iterations 126
time step continuity errors : sum local = 4.46745e-10, global = 5.81464e-20, cumulative = 1.21799e-19
ExecutionTime = 0.2 s  ClockTime = 1 s

Time = 0.00875

Courant Number mean: 0.0622581 max: 0.846538
smoothSolver:  Solving for Ux, Initial residual = 0.0296722, Final residual = 8.32953e-06, No Iterations 8
smoothSolver:  Solving for Uy, Initial residual = 0.0403894, Final residual = 5.70232e-06, No Iterations 9
DICPCG:  Solving for p, Initial residual = 0.0321406, Final residual = 0.00135925, No Iterations 93
time step continuity errors : sum local = 6.44325e-07, global = -2.89384e-21, cumulative = 1.18905e-19
DICPCG:  Solving for p, Initial residual = 0.0221849, Final residual = 9.96235e-07, No Iterations 121
time step continuity errors : sum local = 4.72428e-10, global = -6.85966e-20, cumulative = 5.03089e-20
ExecutionTime = 0.23 s  ClockTime = 1 s

Time = 0.01

Courant Number mean: 0.0667899 max: 0.85864
smoothSolver:  Solving for Ux, Initial residual = 0.0251075, Final residual = 7.26726e-06, No Iterations 8
smoothSolver:  Solving for Uy, Initial residual = 0.0342533, Final residual = 4.88193e-06, No Iterations 9
DICPCG:  Solving for p, Initial residual = 0.0268477, Final residual = 0.00115693, No Iterations 46
time step continuity errors : sum local = 6.28584e-07, global = 1.77552e-20, cumulative = 6.80641e-20
DICPCG:  Solving for p, Initial residual = 0.0185619, Final residual = 7.64356e-07, No Iterations 124
time step continuity errors : sum local = 3.67203e-10, global = 1.72005e-19, cumulative = 2.40069e-19
ExecutionTime = 0.25 s  ClockTime = 1 s

Time = 0.01125

Courant Number mean: 0.0708448 max: 0.868015
smoothSolver:  Solving for Ux, Initial residual = 0.021785, Final residual = 6.46047e-06, No Iterations 8
smoothSolver:  Solving for Uy, Initial residual = 0.029761, Final residual = 4.26682e-06, No Iterations 9
DICPCG:  Solving for p, Initial residual = 0.0239906, Final residual = 0.00108693, No Iterations 45
time step continuity errors : sum local = 5.50097e-07, global = -3.40146e-21, cumulative = 2.36668e-19
DICPCG:  Solving for p, Initial residual = 0.0168296, Final residual = 8.12162e-07, No Iterations 123
time step continuity errors : sum local = 3.92156e-10, global = 1.18776e-19, cumulative = 3.55444e-19
ExecutionTime = 0.27 s  ClockTime = 1 s

Time = 0.0125

Courant Number mean: 0.0745744 max: 0.875557
smoothSolver:  Solving for Ux, Initial residual = 0.0193309, Final residual = 5.86606e-06, No Iterations 8
smoothSolver:  Solving for Uy, Initial residual = 0.0260815, Final residual = 3.75938e-06, No Iterations 9
DICPCG:  Solving for p, Initial residual = 0.0212308, Final residual = 0.001054, No Iterations 46
time step continuity errors : sum local = 6.26649e-07, global = -6.65687e-21, cumulative = 3.48787e-19
DICPCG:  Solving for p, Initial residual = 0.0150533, Final residual = 9.15923e-07, No Iterations 116
time step continuity errors : sum local = 4.45258e-10, global = -1.09908e-19, cumulative = 2.3888e-19
ExecutionTime = 0.3 s  ClockTime = 1 s

Time = 0.01375

Courant Number mean: 0.0780188 max: 0.8818
smoothSolver:  Solving for Ux, Initial residual = 0.0172346, Final residual = 5.31532e-06, No Iterations 8
smoothSolver:  Solving for Uy, Initial residual = 0.0235048, Final residual = 9.07545e-06, No Iterations 8
DICPCG:  Solving for p, Initial residual = 0.019868, Final residual = 0.000867937, No Iterations 47
time step continuity errors : sum local = 5.33781e-07, global = 1.09177e-19, cumulative = 3.48057e-19
DICPCG:  Solving for p, Initial residual = 0.0137235, Final residual = 8.09439e-07, No Iterations 122
time step continuity errors : sum local = 3.94594e-10, global = 6.12359e-20, cumulative = 4.09293e-19
ExecutionTime = 0.32 s  ClockTime = 1 s

Time = 0.015

Courant Number mean: 0.0812072 max: 0.887081
smoothSolver:  Solving for Ux, Initial residual = 0.0157484, Final residual = 4.94511e-06, No Iterations 8
smoothSolver:  Solving for Uy, Initial residual = 0.0209857, Final residual = 8.12309e-06, No Iterations 8
DICPCG:  Solving for p, Initial residual = 0.0178405, Final residual = 0.000845336, No Iterations 91
time step continuity errors : sum local = 4.14628e-07, global = 1.22639e-19, cumulative = 5.31931e-19
DICPCG:  Solving for p, Initial residual = 0.0126918, Final residual = 8.58185e-07, No Iterations 122
time step continuity errors : sum local = 4.18858e-10, global = -1.36391e-19, cumulative = 3.9554e-19
ExecutionTime = 0.34 s  ClockTime = 1 s

Time = 0.01625

Courant Number mean: 0.0841667 max: 0.891625
smoothSolver:  Solving for Ux, Initial residual = 0.014286, Final residual = 4.54605e-06, No Iterations 8
smoothSolver:  Solving for Uy, Initial residual = 0.019222, Final residual = 7.4732e-06, No Iterations 8
DICPCG:  Solving for p, Initial residual = 0.0160759, Final residual = 0.000741211, No Iterations 45
time step continuity errors : sum local = 3.95179e-07, global = -1.35835e-19, cumulative = 2.59705e-19
DICPCG:  Solving for p, Initial residual = 0.0114442, Final residual = 9.03745e-07, No Iterations 121
time step continuity errors : sum local = 4.45164e-10, global = 4.49065e-21, cumulative = 2.64196e-19
ExecutionTime = 0.37 s  ClockTime = 1 s

Time = 0.0175

Courant Number mean: 0.0869653 max: 0.895586
smoothSolver:  Solving for Ux, Initial residual = 0.0131226, Final residual = 4.22392e-06, No Iterations 8
smoothSolver:  Solving for Uy, Initial residual = 0.0176994, Final residual = 6.89417e-06, No Iterations 8
DICPCG:  Solving for p, Initial residual = 0.0150849, Final residual = 0.000736389, No Iterations 44
time step continuity errors : sum local = 3.6735e-07, global = -9.33974e-20, cumulative = 1.70798e-19
DICPCG:  Solving for p, Initial residual = 0.0108442, Final residual = 9.81984e-07, No Iterations 119
time step continuity errors : sum local = 4.86189e-10, global = 7.02204e-20, cumulative = 2.41019e-19
ExecutionTime = 0.39 s  ClockTime = 1 s

Time = 0.01875

Courant Number mean: 0.0896184 max: 0.899084
smoothSolver:  Solving for Ux, Initial residual = 0.0121575, Final residual = 3.95656e-06, No Iterations 8
smoothSolver:  Solving for Uy, Initial residual = 0.0163263, Final residual = 6.37109e-06, No Iterations 8
DICPCG:  Solving for p, Initial residual = 0.0139947, Final residual = 0.000669864, No Iterations 45
time step continuity errors : sum local = 3.77647e-07, global = 1.09448e-19, cumulative = 3.50467e-19
DICPCG:  Solving for p, Initial residual = 0.0101228, Final residual = 8.86854e-07, No Iterations 121
time step continuity errors : sum local = 4.39651e-10, global = 8.43121e-20, cumulative = 4.34779e-19
ExecutionTime = 0.41 s  ClockTime = 1 s

Time = 0.02

Courant Number mean: 0.0921261 max: 0.902199
smoothSolver:  Solving for Ux, Initial residual = 0.0112742, Final residual = 3.70218e-06, No Iterations 8
smoothSolver:  Solving for Uy, Initial residual = 0.0152418, Final residual = 5.9549e-06, No Iterations 8
DICPCG:  Solving for p, Initial residual = 0.0133824, Final residual = 0.000622461, No Iterations 45
time step continuity errors : sum local = 3.43287e-07, global = -9.24665e-21, cumulative = 4.25532e-19
DICPCG:  Solving for p, Initial residual = 0.00962606, Final residual = 8.96645e-07, No Iterations 120
time step continuity errors : sum local = 4.46534e-10, global = -1.48355e-19, cumulative = 2.77177e-19
ExecutionTime = 0.43 s  ClockTime = 1 s

Time = 0.02125

Courant Number mean: 0.0945 max: 0.904997
smoothSolver:  Solving for Ux, Initial residual = 0.0105749, Final residual = 9.49817e-06, No Iterations 7
smoothSolver:  Solving for Uy, Initial residual = 0.0141631, Final residual = 5.53868e-06, No Iterations 8
DICPCG:  Solving for p, Initial residual = 0.0124429, Final residual = 0.000563028, No Iterations 89
time step continuity errors : sum local = 2.80223e-07, global = 2.56904e-19, cumulative = 5.34081e-19
DICPCG:  Solving for p, Initial residual = 0.00893801, Final residual = 8.90347e-07, No Iterations 121
time step continuity errors : sum local = 4.43007e-10, global = -8.37482e-20, cumulative = 4.50333e-19
ExecutionTime = 0.46 s  ClockTime = 1 s

Time = 0.0225

Courant Number mean: 0.0967517 max: 0.907533
smoothSolver:  Solving for Ux, Initial residual = 0.00989762, Final residual = 8.95176e-06, No Iterations 7
smoothSolver:  Solving for Uy, Initial residual = 0.0133121, Final residual = 5.21591e-06, No Iterations 8
DICPCG:  Solving for p, Initial residual = 0.0116216, Final residual = 0.000536833, No Iterations 45
time step continuity errors : sum local = 2.88426e-07, global = 5.87684e-20, cumulative = 5.09102e-19
DICPCG:  Solving for p, Initial residual = 0.00838192, Final residual = 8.38079e-07, No Iterations 117
time step continuity errors : sum local = 4.20761e-10, global = 9.82004e-20, cumulative = 6.07302e-19
ExecutionTime = 0.48 s  ClockTime = 1 s

Time = 0.02375

Courant Number mean: 0.0989064 max: 0.909839
smoothSolver:  Solving for Ux, Initial residual = 0.00929751, Final residual = 8.46322e-06, No Iterations 7
smoothSolver:  Solving for Uy, Initial residual = 0.0125618, Final residual = 4.92524e-06, No Iterations 8
DICPCG:  Solving for p, Initial residual = 0.0112114, Final residual = 0.000557649, No Iterations 44
time step continuity errors : sum local = 2.8414e-07, global = 6.91161e-20, cumulative = 6.76418e-19
DICPCG:  Solving for p, Initial residual = 0.00814989, Final residual = 8.96558e-07, No Iterations 116
time step continuity errors : sum local = 4.50009e-10, global = 7.55002e-20, cumulative = 7.51918e-19
ExecutionTime = 0.5 s  ClockTime = 1 s

Time = 0.025

Courant Number mean: 0.10098 max: 0.911951
smoothSolver:  Solving for Ux, Initial residual = 0.00878694, Final residual = 8.04948e-06, No Iterations 7
smoothSolver:  Solving for Uy, Initial residual = 0.0118464, Final residual = 4.64772e-06, No Iterations 8
DICPCG:  Solving for p, Initial residual = 0.0106372, Final residual = 0.000510749, No Iterations 45
time step continuity errors : sum local = 2.88994e-07, global = -9.34986e-20, cumulative = 6.5842e-19
DICPCG:  Solving for p, Initial residual = 0.00776558, Final residual = 9.82583e-07, No Iterations 116
time step continuity errors : sum local = 4.94752e-10, global = 1.11165e-19, cumulative = 7.69585e-19
ExecutionTime = 0.55 s  ClockTime = 1 s

Time = 0.02625

Courant Number mean: 0.102972 max: 0.9139
smoothSolver:  Solving for Ux, Initial residual = 0.00830242, Final residual = 7.64033e-06, No Iterations 7
smoothSolver:  Solving for Uy, Initial residual = 0.0112661, Final residual = 4.42217e-06, No Iterations 8
DICPCG:  Solving for p, Initial residual = 0.0103122, Final residual = 0.000489921, No Iterations 45
time step continuity errors : sum local = 2.73235e-07, global = 2.35827e-21, cumulative = 7.71943e-19
DICPCG:  Solving for p, Initial residual = 0.00748897, Final residual = 9.8528e-07, No Iterations 118
time step continuity errors : sum local = 4.95655e-10, global = 9.69231e-21, cumulative = 7.81636e-19
ExecutionTime = 0.57 s  ClockTime = 2 s

Time = 0.0275

Courant Number mean: 0.104885 max: 0.915699
smoothSolver:  Solving for Ux, Initial residual = 0.00790614, Final residual = 7.32047e-06, No Iterations 7
smoothSolver:  Solving for Uy, Initial residual = 0.0106556, Final residual = 4.18288e-06, No Iterations 8
DICPCG:  Solving for p, Initial residual = 0.00976204, Final residual = 0.000474872, No Iterations 47
time step continuity errors : sum local = 3.01813e-07, global = 9.83288e-20, cumulative = 8.79964e-19
DICPCG:  Solving for p, Initial residual = 0.00702472, Final residual = 9.16719e-07, No Iterations 114
time step continuity errors : sum local = 4.62559e-10, global = 4.1199e-20, cumulative = 9.21163e-19
ExecutionTime = 0.59 s  ClockTime = 2 s

Time = 0.02875

Courant Number mean: 0.10672 max: 0.917368
smoothSolver:  Solving for Ux, Initial residual = 0.00748225, Final residual = 6.95278e-06, No Iterations 7
smoothSolver:  Solving for Uy, Initial residual = 0.0102313, Final residual = 4.01708e-06, No Iterations 8
DICPCG:  Solving for p, Initial residual = 0.00976629, Final residual = 0.000452509, No Iterations 88
time step continuity errors : sum local = 2.2768e-07, global = 2.09196e-20, cumulative = 9.42083e-19
DICPCG:  Solving for p, Initial residual = 0.00697319, Final residual = 9.36181e-07, No Iterations 119
time step continuity errors : sum local = 4.73104e-10, global = 8.51807e-20, cumulative = 1.02726e-18
ExecutionTime = 0.61 s  ClockTime = 2 s

Time = 0.03

Courant Number mean: 0.108484 max: 0.918925
smoothSolver:  Solving for Ux, Initial residual = 0.00714862, Final residual = 6.67935e-06, No Iterations 7
smoothSolver:  Solving for Uy, Initial residual = 0.00970712, Final residual = 3.81576e-06, No Iterations 8
DICPCG:  Solving for p, Initial residual = 0.00881084, Final residual = 0.000425922, No Iterations 45
time step continuity errors : sum local = 2.35178e-07, global = 5.17182e-20, cumulative = 1.07898e-18
DICPCG:  Solving for p, Initial residual = 0.00639542, Final residual = 7.82587e-07, No Iterations 114
time step continuity errors : sum local = 3.95984e-10, global = 1.25448e-19, cumulative = 1.20443e-18
ExecutionTime = 0.64 s  ClockTime = 2 s

Time = 0.03125

Courant Number mean: 0.11018 max: 0.920382
smoothSolver:  Solving for Ux, Initial residual = 0.00681743, Final residual = 6.39155e-06, No Iterations 7
smoothSolver:  Solving for Uy, Initial residual = 0.00930494, Final residual = 9.74919e-06, No Iterations 7
DICPCG:  Solving for p, Initial residual = 0.00872453, Final residual = 0.000397822, No Iterations 45
time step continuity errors : sum local = 2.1472e-07, global = -7.25496e-21, cumulative = 1.19718e-18
DICPCG:  Solving for p, Initial residual = 0.0063766, Final residual = 9.3718e-07, No Iterations 119
time step continuity errors : sum local = 4.74467e-10, global = 5.90556e-20, cumulative = 1.25623e-18
ExecutionTime = 0.66 s  ClockTime = 2 s

Time = 0.0325

Courant Number mean: 0.111831 max: 0.921745
smoothSolver:  Solving for Ux, Initial residual = 0.00653542, Final residual = 6.15509e-06, No Iterations 7
smoothSolver:  Solving for Uy, Initial residual = 0.00889137, Final residual = 9.31468e-06, No Iterations 7
DICPCG:  Solving for p, Initial residual = 0.0083207, Final residual = 0.000353889, No Iterations 46
time step continuity errors : sum local = 2.15929e-07, global = 1.65238e-19, cumulative = 1.42147e-18
DICPCG:  Solving for p, Initial residual = 0.00607481, Final residual = 9.51598e-07, No Iterations 119
time step continuity errors : sum local = 4.8249e-10, global = 6.77974e-20, cumulative = 1.48927e-18
ExecutionTime = 0.68 s  ClockTime = 2 s

Time = 0.03375

Courant Number mean: 0.113432 max: 0.923026
smoothSolver:  Solving for Ux, Initial residual = 0.00624249, Final residual = 5.89623e-06, No Iterations 7
smoothSolver:  Solving for Uy, Initial residual = 0.00857822, Final residual = 8.98696e-06, No Iterations 7
DICPCG:  Solving for p, Initial residual = 0.00825014, Final residual = 0.000366794, No Iterations 46
time step continuity errors : sum local = 2.25807e-07, global = 1.06945e-19, cumulative = 1.59621e-18
DICPCG:  Solving for p, Initial residual = 0.00596755, Final residual = 9.06436e-07, No Iterations 119
time step continuity errors : sum local = 4.60076e-10, global = 1.75228e-19, cumulative = 1.77144e-18
ExecutionTime = 0.7 s  ClockTime = 2 s

Time = 0.035

Courant Number mean: 0.114982 max: 0.924237
smoothSolver:  Solving for Ux, Initial residual = 0.00602401, Final residual = 5.71611e-06, No Iterations 7
smoothSolver:  Solving for Uy, Initial residual = 0.00819174, Final residual = 8.57717e-06, No Iterations 7
DICPCG:  Solving for p, Initial residual = 0.00788888, Final residual = 0.000374859, No Iterations 88
time step continuity errors : sum local = 1.90242e-07, global = 9.43726e-20, cumulative = 1.86581e-18
DICPCG:  Solving for p, Initial residual = 0.0056779, Final residual = 9.46204e-07, No Iterations 114
time step continuity errors : sum local = 4.82001e-10, global = -6.55916e-20, cumulative = 1.80022e-18
ExecutionTime = 0.73 s  ClockTime = 2 s

Time = 0.03625

Courant Number mean: 0.116485 max: 0.925382
smoothSolver:  Solving for Ux, Initial residual = 0.00576408, Final residual = 5.48411e-06, No Iterations 7
smoothSolver:  Solving for Uy, Initial residual = 0.00791065, Final residual = 8.29277e-06, No Iterations 7
DICPCG:  Solving for p, Initial residual = 0.00737548, Final residual = 0.000343542, No Iterations 45
time step continuity errors : sum local = 1.84993e-07, global = 3.17101e-20, cumulative = 1.83193e-18
DICPCG:  Solving for p, Initial residual = 0.00536693, Final residual = 9.23026e-07, No Iterations 119
time step continuity errors : sum local = 4.69699e-10, global = -3.95478e-20, cumulative = 1.79238e-18
ExecutionTime = 0.75 s  ClockTime = 2 s

Time = 0.0375

Courant Number mean: 0.117943 max: 0.926464
smoothSolver:  Solving for Ux, Initial residual = 0.00554017, Final residual = 5.28417e-06, No Iterations 7
smoothSolver:  Solving for Uy, Initial residual = 0.00763372, Final residual = 8.00283e-06, No Iterations 7
DICPCG:  Solving for p, Initial residual = 0.00733112, Final residual = 0.000321272, No Iterations 45
time step continuity errors : sum local = 1.67398e-07, global = -6.08028e-20, cumulative = 1.73158e-18
DICPCG:  Solving for p, Initial residual = 0.00539857, Final residual = 8.96593e-07, No Iterations 119
time step continuity errors : sum local = 4.56771e-10, global = -1.38086e-19, cumulative = 1.59349e-18
ExecutionTime = 0.77 s  ClockTime = 2 s

Time = 0.03875

Courant Number mean: 0.119356 max: 0.927489
smoothSolver:  Solving for Ux, Initial residual = 0.0053405, Final residual = 5.1108e-06, No Iterations 7
smoothSolver:  Solving for Uy, Initial residual = 0.007359, Final residual = 7.7131e-06, No Iterations 7
DICPCG:  Solving for p, Initial residual = 0.00703916, Final residual = 0.000330042, No Iterations 45
time step continuity errors : sum local = 1.8535e-07, global = 7.58476e-20, cumulative = 1.66934e-18
DICPCG:  Solving for p, Initial residual = 0.00522042, Final residual = 9.00663e-07, No Iterations 119
time step continuity errors : sum local = 4.59516e-10, global = 3.85382e-20, cumulative = 1.70788e-18
ExecutionTime = 0.79 s  ClockTime = 2 s

Time = 0.04

Courant Number mean: 0.120726 max: 0.928464
smoothSolver:  Solving for Ux, Initial residual = 0.00514157, Final residual = 4.93326e-06, No Iterations 7
smoothSolver:  Solving for Uy, Initial residual = 0.00712848, Final residual = 7.47162e-06, No Iterations 7
DICPCG:  Solving for p, Initial residual = 0.00695828, Final residual = 0.000318438, No Iterations 45
time step continuity errors : sum local = 1.77519e-07, global = -2.59845e-20, cumulative = 1.6819e-18
DICPCG:  Solving for p, Initial residual = 0.00510842, Final residual = 8.69417e-07, No Iterations 119
time step continuity errors : sum local = 4.43982e-10, global = -1.05822e-19, cumulative = 1.57607e-18
ExecutionTime = 0.81 s  ClockTime = 2 s

Time = 0.04125

Courant Number mean: 0.122056 max: 0.929395
smoothSolver:  Solving for Ux, Initial residual = 0.00497573, Final residual = 4.78972e-06, No Iterations 7
smoothSolver:  Solving for Uy, Initial residual = 0.00687481, Final residual = 7.2023e-06, No Iterations 7
DICPCG:  Solving for p, Initial residual = 0.00670897, Final residual = 0.000317988, No Iterations 46
time step continuity errors : sum local = 1.96051e-07, global = 9.72286e-20, cumulative = 1.6733e-18
DICPCG:  Solving for p, Initial residual = 0.00494805, Final residual = 8.76481e-07, No Iterations 119
time step continuity errors : sum local = 4.48301e-10, global = 1.86418e-20, cumulative = 1.69194e-18
ExecutionTime = 0.83 s  ClockTime = 2 s

Time = 0.0425

Courant Number mean: 0.123353 max: 0.930282
smoothSolver:  Solving for Ux, Initial residual = 0.00479421, Final residual = 4.61953e-06, No Iterations 7
smoothSolver:  Solving for Uy, Initial residual = 0.00669324, Final residual = 7.01149e-06, No Iterations 7
DICPCG:  Solving for p, Initial residual = 0.00673922, Final residual = 0.000294525, No Iterations 47
time step continuity errors : sum local = 1.89495e-07, global = -1.61046e-19, cumulative = 1.5309e-18
DICPCG:  Solving for p, Initial residual = 0.00487049, Final residual = 8.22355e-07, No Iterations 119
time step continuity errors : sum local = 4.21019e-10, global = -4.34942e-20, cumulative = 1.4874e-18
ExecutionTime = 0.85 s  ClockTime = 2 s

Time = 0.04375

Courant Number mean: 0.124623 max: 0.931127
smoothSolver:  Solving for Ux, Initial residual = 0.00466877, Final residual = 4.51309e-06, No Iterations 7
smoothSolver:  Solving for Uy, Initial residual = 0.00644008, Final residual = 6.74032e-06, No Iterations 7
DICPCG:  Solving for p, Initial residual = 0.00648761, Final residual = 0.000295678, No Iterations 89
time step continuity errors : sum local = 1.51562e-07, global = -1.5991e-19, cumulative = 1.32749e-18
DICPCG:  Solving for p, Initial residual = 0.00470615, Final residual = 9.48629e-07, No Iterations 118
time step continuity errors : sum local = 4.86774e-10, global = -1.43909e-19, cumulative = 1.18358e-18
ExecutionTime = 0.88 s  ClockTime = 2 s

Time = 0.045

Courant Number mean: 0.125863 max: 0.931936
smoothSolver:  Solving for Ux, Initial residual = 0.00449583, Final residual = 4.35547e-06, No Iterations 7
smoothSolver:  Solving for Uy, Initial residual = 0.00626893, Final residual = 6.5687e-06, No Iterations 7
DICPCG:  Solving for p, Initial residual = 0.00608357, Final residual = 0.000297451, No Iterations 44
time step continuity errors : sum local = 1.59679e-07, global = -3.57405e-20, cumulative = 1.14784e-18
DICPCG:  Solving for p, Initial residual = 0.00446194, Final residual = 8.1017e-07, No Iterations 119
time step continuity errors : sum local = 4.1561e-10, global = -8.17699e-20, cumulative = 1.06607e-18
ExecutionTime = 0.9 s  ClockTime = 2 s

Time = 0.04625

Courant Number mean: 0.127072 max: 0.932709
smoothSolver:  Solving for Ux, Initial residual = 0.00435034, Final residual = 4.22391e-06, No Iterations 7
smoothSolver:  Solving for Uy, Initial residual = 0.00609199, Final residual = 6.38293e-06, No Iterations 7
DICPCG:  Solving for p, Initial residual = 0.00607729, Final residual = 0.000284826, No Iterations 44
time step continuity errors : sum local = 1.49277e-07, global = -9.54476e-20, cumulative = 9.70626e-19
DICPCG:  Solving for p, Initial residual = 0.00451526, Final residual = 7.72848e-07, No Iterations 119
time step continuity errors : sum local = 3.97023e-10, global = -2.93312e-20, cumulative = 9.41294e-19
ExecutionTime = 0.92 s  ClockTime = 2 s

Time = 0.0475

Courant Number mean: 0.128253 max: 0.933448
smoothSolver:  Solving for Ux, Initial residual = 0.00422125, Final residual = 4.10809e-06, No Iterations 7
smoothSolver:  Solving for Uy, Initial residual = 0.0059134, Final residual = 6.19379e-06, No Iterations 7
DICPCG:  Solving for p, Initial residual = 0.00587571, Final residual = 0.000284933, No Iterations 44
time step continuity errors : sum local = 1.58527e-07, global = 2.78439e-19, cumulative = 1.21973e-18
DICPCG:  Solving for p, Initial residual = 0.00438865, Final residual = 9.90675e-07, No Iterations 118
time step continuity errors : sum local = 5.09667e-10, global = -1.25946e-19, cumulative = 1.09379e-18
ExecutionTime = 0.94 s  ClockTime = 2 s

Time = 0.04875

Courant Number mean: 0.129405 max: 0.934159
smoothSolver:  Solving for Ux, Initial residual = 0.00409176, Final residual = 3.98764e-06, No Iterations 7
smoothSolver:  Solving for Uy, Initial residual = 0.00576078, Final residual = 6.03391e-06, No Iterations 7
DICPCG:  Solving for p, Initial residual = 0.0058208, Final residual = 0.000278432, No Iterations 44
time step continuity errors : sum local = 1.54329e-07, global = 1.13797e-19, cumulative = 1.20758e-18
DICPCG:  Solving for p, Initial residual = 0.00431697, Final residual = 9.4902e-07, No Iterations 118
time step continuity errors : sum local = 4.88453e-10, global = 1.97599e-19, cumulative = 1.40518e-18
ExecutionTime = 0.96 s  ClockTime = 2 s

Time = 0.05

Courant Number mean: 0.130529 max: 0.934843
smoothSolver:  Solving for Ux, Initial residual = 0.00398117, Final residual = 3.88872e-06, No Iterations 7
smoothSolver:  Solving for Uy, Initial residual = 0.00559185, Final residual = 5.85373e-06, No Iterations 7
DICPCG:  Solving for p, Initial residual = 0.00564933, Final residual = 0.000247963, No Iterations 46
time step continuity errors : sum local = 1.51946e-07, global = 2.2191e-19, cumulative = 1.62709e-18
DICPCG:  Solving for p, Initial residual = 0.00411808, Final residual = 9.53383e-07, No Iterations 118
time step continuity errors : sum local = 4.91443e-10, global = -1.81872e-20, cumulative = 1.60891e-18
ExecutionTime = 1 s  ClockTime = 2 s

Time = 0.05125

Courant Number mean: 0.131626 max: 0.9355
smoothSolver:  Solving for Ux, Initial residual = 0.00385934, Final residual = 3.7723e-06, No Iterations 7
smoothSolver:  Solving for Uy, Initial residual = 0.00546701, Final residual = 5.72269e-06, No Iterations 7
DICPCG:  Solving for p, Initial residual = 0.00565613, Final residual = 0.000261215, No Iterations 46
time step continuity errors : sum local = 1.6267e-07, global = -1.42305e-19, cumulative = 1.4666e-18
DICPCG:  Solving for p, Initial residual = 0.00415355, Final residual = 9.02373e-07, No Iterations 118
time step continuity errors : sum local = 4.65109e-10, global = 2.62562e-20, cumulative = 1.49286e-18
ExecutionTime = 1.02 s  ClockTime = 2 s

Time = 0.0525

Courant Number mean: 0.132698 max: 0.936132
smoothSolver:  Solving for Ux, Initial residual = 0.00377286, Final residual = 9.92952e-06, No Iterations 6
smoothSolver:  Solving for Uy, Initial residual = 0.00529543, Final residual = 5.53839e-06, No Iterations 7
DICPCG:  Solving for p, Initial residual = 0.0054707, Final residual = 0.000254188, No Iterations 90
time step continuity errors : sum local = 1.31236e-07, global = -1.73173e-19, cumulative = 1.31969e-18
DICPCG:  Solving for p, Initial residual = 0.00398256, Final residual = 8.62716e-07, No Iterations 118
time step continuity errors : sum local = 4.45238e-10, global = -3.41384e-20, cumulative = 1.28555e-18
ExecutionTime = 1.05 s  ClockTime = 2 s

Time = 0.05375

Courant Number mean: 0.133743 max: 0.936741
smoothSolver:  Solving for Ux, Initial residual = 0.00365583, Final residual = 9.63727e-06, No Iterations 6
smoothSolver:  Solving for Uy, Initial residual = 0.00517588, Final residual = 5.41765e-06, No Iterations 7
DICPCG:  Solving for p, Initial residual = 0.00519331, Final residual = 0.000240675, No Iterations 44
time step continuity errors : sum local = 1.29647e-07, global = -1.83032e-19, cumulative = 1.10252e-18
DICPCG:  Solving for p, Initial residual = 0.0038274, Final residual = 8.8603e-07, No Iterations 118
time step continuity errors : sum local = 4.57849e-10, global = 5.79931e-21, cumulative = 1.10831e-18
ExecutionTime = 1.07 s  ClockTime = 2 s

Time = 0.055

Courant Number mean: 0.134766 max: 0.937326
smoothSolver:  Solving for Ux, Initial residual = 0.0035558, Final residual = 9.38556e-06, No Iterations 6
smoothSolver:  Solving for Uy, Initial residual = 0.00505256, Final residual = 5.28819e-06, No Iterations 7
DICPCG:  Solving for p, Initial residual = 0.00518006, Final residual = 0.000231919, No Iterations 44
time step continuity errors : sum local = 1.22817e-07, global = 4.89155e-20, cumulative = 1.15723e-18
DICPCG:  Solving for p, Initial residual = 0.00386335, Final residual = 8.45516e-07, No Iterations 118
time step continuity errors : sum local = 4.37068e-10, global = 1.5951e-19, cumulative = 1.31674e-18
ExecutionTime = 1.09 s  ClockTime = 2 s

Time = 0.05625

Courant Number mean: 0.135774 max: 0.937891
smoothSolver:  Solving for Ux, Initial residual = 0.00346627, Final residual = 9.16339e-06, No Iterations 6
smoothSolver:  Solving for Uy, Initial residual = 0.00492641, Final residual = 5.15439e-06, No Iterations 7
DICPCG:  Solving for p, Initial residual = 0.00503296, Final residual = 0.000232333, No Iterations 44
time step continuity errors : sum local = 1.29676e-07, global = -1.04451e-19, cumulative = 1.21229e-18
DICPCG:  Solving for p, Initial residual = 0.00376867, Final residual = 8.37464e-07, No Iterations 118
time step continuity errors : sum local = 4.33352e-10, global = -1.10214e-20, cumulative = 1.20127e-18
ExecutionTime = 1.11 s  ClockTime = 2 s

Time = 0.0575

Courant Number mean: 0.136762 max: 0.938435
smoothSolver:  Solving for Ux, Initial residual = 0.00337528, Final residual = 8.92961e-06, No Iterations 6
smoothSolver:  Solving for Uy, Initial residual = 0.00481812, Final residual = 5.04085e-06, No Iterations 7
DICPCG:  Solving for p, Initial residual = 0.0049943, Final residual = 0.000229934, No Iterations 44
time step continuity errors : sum local = 1.28524e-07, global = -1.7252e-19, cumulative = 1.02875e-18
DICPCG:  Solving for p, Initial residual = 0.00372135, Final residual = 8.20717e-07, No Iterations 118
time step continuity errors : sum local = 4.24825e-10, global = -5.94057e-20, cumulative = 9.69342e-19
ExecutionTime = 1.13 s  ClockTime = 2 s

Time = 0.05875

Courant Number mean: 0.137732 max: 0.93896
smoothSolver:  Solving for Ux, Initial residual = 0.00329723, Final residual = 8.73679e-06, No Iterations 6
smoothSolver:  Solving for Uy, Initial residual = 0.00469649, Final residual = 4.91074e-06, No Iterations 7
DICPCG:  Solving for p, Initial residual = 0.00488936, Final residual = 0.000234193, No Iterations 45
time step continuity errors : sum local = 1.40754e-07, global = 2.01127e-19, cumulative = 1.17047e-18
DICPCG:  Solving for p, Initial residual = 0.00361478, Final residual = 8.15923e-07, No Iterations 118
time step continuity errors : sum local = 4.2293e-10, global = -1.30886e-19, cumulative = 1.03958e-18
ExecutionTime = 1.15 s  ClockTime = 2 s

Time = 0.06

Courant Number mean: 0.138684 max: 0.939467
smoothSolver:  Solving for Ux, Initial residual = 0.00320906, Final residual = 8.50745e-06, No Iterations 6
smoothSolver:  Solving for Uy, Initial residual = 0.00460751, Final residual = 4.81763e-06, No Iterations 7
DICPCG:  Solving for p, Initial residual = 0.00488319, Final residual = 0.000218274, No Iterations 46
time step continuity errors : sum local = 1.36617e-07, global = -2.98087e-19, cumulative = 7.41497e-19
DICPCG:  Solving for p, Initial residual = 0.00358444, Final residual = 8.08946e-07, No Iterations 118
time step continuity errors : sum local = 4.19384e-10, global = -3.99925e-20, cumulative = 7.01504e-19
ExecutionTime = 1.17 s  ClockTime = 2 s

Time = 0.06125

Courant Number mean: 0.139618 max: 0.939958
smoothSolver:  Solving for Ux, Initial residual = 0.003148, Final residual = 8.36329e-06, No Iterations 6
smoothSolver:  Solving for Uy, Initial residual = 0.00448044, Final residual = 4.68083e-06, No Iterations 7
DICPCG:  Solving for p, Initial residual = 0.00475193, Final residual = 0.000192199, No Iterations 91
time step continuity errors : sum local = 9.96521e-08, global = 1.41617e-19, cumulative = 8.43121e-19
DICPCG:  Solving for p, Initial residual = 0.00347487, Final residual = 7.7193e-07, No Iterations 118
time step continuity errors : sum local = 4.00465e-10, global = -9.82717e-20, cumulative = 7.44849e-19
ExecutionTime = 1.21 s  ClockTime = 2 s

Time = 0.0625

Courant Number mean: 0.140534 max: 0.940432
smoothSolver:  Solving for Ux, Initial residual = 0.00306278, Final residual = 8.146e-06, No Iterations 6
smoothSolver:  Solving for Uy, Initial residual = 0.00439275, Final residual = 4.59251e-06, No Iterations 7
DICPCG:  Solving for p, Initial residual = 0.00453218, Final residual = 0.000199101, No Iterations 44
time step continuity errors : sum local = 1.07937e-07, global = 9.7588e-21, cumulative = 7.54608e-19
DICPCG:  Solving for p, Initial residual = 0.00335322, Final residual = 9.82317e-07, No Iterations 117
time step continuity errors : sum local = 5.10108e-10, global = 1.08003e-19, cumulative = 8.6261e-19
ExecutionTime = 1.23 s  ClockTime = 2 s

Time = 0.06375

Courant Number mean: 0.141432 max: 0.940891
smoothSolver:  Solving for Ux, Initial residual = 0.00298967, Final residual = 7.95749e-06, No Iterations 6
smoothSolver:  Solving for Uy, Initial residual = 0.00430199, Final residual = 4.49728e-06, No Iterations 7
DICPCG:  Solving for p, Initial residual = 0.00452738, Final residual = 0.00019325, No Iterations 44
time step continuity errors : sum local = 1.03436e-07, global = -1.70867e-19, cumulative = 6.91743e-19
DICPCG:  Solving for p, Initial residual = 0.00338607, Final residual = 9.45863e-07, No Iterations 117
time step continuity errors : sum local = 4.91575e-10, global = -6.80211e-20, cumulative = 6.23722e-19
ExecutionTime = 1.25 s  ClockTime = 2 s

Time = 0.065

Courant Number mean: 0.142312 max: 0.941335
smoothSolver:  Solving for Ux, Initial residual = 0.00292422, Final residual = 7.79294e-06, No Iterations 6
smoothSolver:  Solving for Uy, Initial residual = 0.0042073, Final residual = 4.39693e-06, No Iterations 7
DICPCG:  Solving for p, Initial residual = 0.00441257, Final residual = 0.000196042, No Iterations 44
time step continuity errors : sum local = 1.10312e-07, global = 8.04246e-20, cumulative = 7.04147e-19
DICPCG:  Solving for p, Initial residual = 0.00331351, Final residual = 9.38909e-07, No Iterations 117
time step continuity errors : sum local = 4.88074e-10, global = 6.73884e-20, cumulative = 7.71535e-19
ExecutionTime = 1.27 s  ClockTime = 2 s

Time = 0.06625

Courant Number mean: 0.143176 max: 0.941765
smoothSolver:  Solving for Ux, Initial residual = 0.00285631, Final residual = 7.61717e-06, No Iterations 6
smoothSolver:  Solving for Uy, Initial residual = 0.00412671, Final residual = 4.31268e-06, No Iterations 7
DICPCG:  Solving for p, Initial residual = 0.0043924, Final residual = 0.000193, No Iterations 44
time step continuity errors : sum local = 1.09349e-07, global = 8.27458e-20, cumulative = 8.54281e-19
DICPCG:  Solving for p, Initial residual = 0.00328198, Final residual = 9.06102e-07, No Iterations 117
time step continuity errors : sum local = 4.71507e-10, global = -5.16094e-20, cumulative = 8.02672e-19
ExecutionTime = 1.29 s  ClockTime = 2 s

Time = 0.0675

Courant Number mean: 0.144023 max: 0.942182
smoothSolver:  Solving for Ux, Initial residual = 0.00279878, Final residual = 7.47468e-06, No Iterations 6
smoothSolver:  Solving for Uy, Initial residual = 0.00403375, Final residual = 4.21314e-06, No Iterations 7
DICPCG:  Solving for p, Initial residual = 0.0042972, Final residual = 0.000198603, No Iterations 45
time step continuity errors : sum local = 1.20871e-07, global = 1.31924e-19, cumulative = 9.34595e-19
DICPCG:  Solving for p, Initial residual = 0.00319692, Final residual = 9.11619e-07, No Iterations 117
time step continuity errors : sum local = 4.74469e-10, global = -1.70409e-19, cumulative = 7.64186e-19
ExecutionTime = 1.31 s  ClockTime = 2 s

Time = 0.06875

Courant Number mean: 0.144855 max: 0.942586
smoothSolver:  Solving for Ux, Initial residual = 0.00273224, Final residual = 7.29882e-06, No Iterations 6
smoothSolver:  Solving for Uy, Initial residual = 0.00396773, Final residual = 4.14411e-06, No Iterations 7
DICPCG:  Solving for p, Initial residual = 0.00431971, Final residual = 0.000194047, No Iterations 46
time step continuity errors : sum local = 1.2255e-07, global = 1.96972e-19, cumulative = 9.61159e-19
DICPCG:  Solving for p, Initial residual = 0.00318465, Final residual = 8.76644e-07, No Iterations 117
time step continuity errors : sum local = 4.56637e-10, global = 1.89684e-19, cumulative = 1.15084e-18
ExecutionTime = 1.33 s  ClockTime = 2 s

Time = 0.07

Courant Number mean: 0.145671 max: 0.942978
smoothSolver:  Solving for Ux, Initial residual = 0.00268915, Final residual = 7.19493e-06, No Iterations 6
smoothSolver:  Solving for Uy, Initial residual = 0.00386824, Final residual = 4.03682e-06, No Iterations 7
DICPCG:  Solving for p, Initial residual = 0.00421518, Final residual = 0.000174075, No Iterations 91
time step continuity errors : sum local = 9.06602e-08, global = -1.46167e-19, cumulative = 1.00468e-18
DICPCG:  Solving for p, Initial residual = 0.00309697, Final residual = 8.88896e-07, No Iterations 117
time step continuity errors : sum local = 4.63707e-10, global = -9.01868e-20, cumulative = 9.14488e-19
ExecutionTime = 1.36 s  ClockTime = 2 s

Time = 0.07125

Courant Number mean: 0.146473 max: 0.943359
smoothSolver:  Solving for Ux, Initial residual = 0.00262368, Final residual = 7.02608e-06, No Iterations 6
smoothSolver:  Solving for Uy, Initial residual = 0.00380176, Final residual = 3.97042e-06, No Iterations 7
DICPCG:  Solving for p, Initial residual = 0.00402198, Final residual = 0.000170913, No Iterations 44
time step continuity errors : sum local = 9.29477e-08, global = -7.05133e-20, cumulative = 8.43975e-19
DICPCG:  Solving for p, Initial residual = 0.00298185, Final residual = 8.6209e-07, No Iterations 117
time step continuity errors : sum local = 4.49541e-10, global = 1.35339e-19, cumulative = 9.79314e-19
ExecutionTime = 1.38 s  ClockTime = 2 s

Time = 0.0725

Courant Number mean: 0.147266 max: 0.943728
smoothSolver:  Solving for Ux, Initial residual = 0.00256788, Final residual = 6.88162e-06, No Iterations 6
smoothSolver:  Solving for Uy, Initial residual = 0.00373189, Final residual = 3.89711e-06, No Iterations 7
DICPCG:  Solving for p, Initial residual = 0.00402079, Final residual = 0.000166275, No Iterations 44
time step continuity errors : sum local = 8.94175e-08, global = 3.79146e-20, cumulative = 1.01723e-18
DICPCG:  Solving for p, Initial residual = 0.00301443, Final residual = 8.38828e-07, No Iterations 117
time step continuity errors : sum local = 4.37752e-10, global = 7.51349e-21, cumulative = 1.02474e-18
ExecutionTime = 1.4 s  ClockTime = 2 s

Time = 0.07375

Courant Number mean: 0.148047 max: 0.944087
smoothSolver:  Solving for Ux, Initial residual = 0.00251795, Final residual = 6.75513e-06, No Iterations 6
smoothSolver:  Solving for Uy, Initial residual = 0.00365825, Final residual = 3.81906e-06, No Iterations 7
DICPCG:  Solving for p, Initial residual = 0.00392864, Final residual = 0.000170196, No Iterations 44
time step continuity errors : sum local = 9.59422e-08, global = 2.09839e-20, cumulative = 1.04573e-18
DICPCG:  Solving for p, Initial residual = 0.002956, Final residual = 8.30305e-07, No Iterations 117
time step continuity errors : sum local = 4.33292e-10, global = -1.24075e-19, cumulative = 9.21651e-19
ExecutionTime = 1.42 s  ClockTime = 2 s

Time = 0.075

Courant Number mean: 0.148816 max: 0.944435
smoothSolver:  Solving for Ux, Initial residual = 0.00246573, Final residual = 6.61858e-06, No Iterations 6
smoothSolver:  Solving for Uy, Initial residual = 0.00359546, Final residual = 3.75351e-06, No Iterations 7
DICPCG:  Solving for p, Initial residual = 0.00391588, Final residual = 0.00016964, No Iterations 44
time step continuity errors : sum local = 9.62806e-08, global = -3.18645e-19, cumulative = 6.03006e-19
DICPCG:  Solving for p, Initial residual = 0.00293224, Final residual = 8.06161e-07, No Iterations 117
time step continuity errors : sum local = 4.21111e-10, global = 1.74184e-19, cumulative = 7.7719e-19
ExecutionTime = 1.46 s  ClockTime = 2 s

Time = 0.07625

Courant Number mean: 0.149574 max: 0.944774
smoothSolver:  Solving for Ux, Initial residual = 0.00242175, Final residual = 6.5084e-06, No Iterations 6
smoothSolver:  Solving for Uy, Initial residual = 0.00352232, Final residual = 9.79615e-06, No Iterations 6
DICPCG:  Solving for p, Initial residual = 0.00382002, Final residual = 0.000190058, No Iterations 44
time step continuity errors : sum local = 1.14385e-07, global = -3.47745e-19, cumulative = 4.29445e-19
DICPCG:  Solving for p, Initial residual = 0.00288461, Final residual = 8.00812e-07, No Iterations 117
time step continuity errors : sum local = 4.18324e-10, global = -1.89026e-19, cumulative = 2.40419e-19
ExecutionTime = 1.48 s  ClockTime = 2 s

Time = 0.0775

Courant Number mean: 0.15032 max: 0.945103
smoothSolver:  Solving for Ux, Initial residual = 0.00237024, Final residual = 6.36946e-06, No Iterations 6
smoothSolver:  Solving for Uy, Initial residual = 0.00347171, Final residual = 9.65534e-06, No Iterations 6
DICPCG:  Solving for p, Initial residual = 0.00386051, Final residual = 0.000188839, No Iterations 45
time step continuity errors : sum local = 1.17373e-07, global = -1.2585e-19, cumulative = 1.14568e-19
DICPCG:  Solving for p, Initial residual = 0.00285928, Final residual = 9.39303e-07, No Iterations 116
time step continuity errors : sum local = 4.91132e-10, global = -2.14493e-19, cumulative = -9.99247e-20
ExecutionTime = 1.5 s  ClockTime = 2 s

Time = 0.07875

Courant Number mean: 0.151054 max: 0.945423
smoothSolver:  Solving for Ux, Initial residual = 0.00233744, Final residual = 6.2907e-06, No Iterations 6
smoothSolver:  Solving for Uy, Initial residual = 0.0033919, Final residual = 9.42714e-06, No Iterations 6
DICPCG:  Solving for p, Initial residual = 0.0037726, Final residual = 0.000155026, No Iterations 91
time step continuity errors : sum local = 8.10598e-08, global = -2.23969e-19, cumulative = -3.23894e-19
DICPCG:  Solving for p, Initial residual = 0.00276614, Final residual = 9.76455e-07, No Iterations 116
time step continuity errors : sum local = 5.10961e-10, global = -8.99723e-20, cumulative = -4.13866e-19
ExecutionTime = 1.52 s  ClockTime = 3 s

Time = 0.08

Courant Number mean: 0.151775 max: 0.945734
smoothSolver:  Solving for Ux, Initial residual = 0.00228609, Final residual = 6.15735e-06, No Iterations 6
smoothSolver:  Solving for Uy, Initial residual = 0.00333873, Final residual = 9.28575e-06, No Iterations 6
DICPCG:  Solving for p, Initial residual = 0.00359991, Final residual = 0.000174558, No Iterations 43
time step continuity errors : sum local = 9.48833e-08, global = 2.1361e-19, cumulative = -2.00256e-19
DICPCG:  Solving for p, Initial residual = 0.0026822, Final residual = 9.50307e-07, No Iterations 116
time step continuity errors : sum local = 4.97467e-10, global = -4.62127e-20, cumulative = -2.46469e-19
ExecutionTime = 1.54 s  ClockTime = 3 s

Time = 0.08125

Courant Number mean: 0.152486 max: 0.946037
smoothSolver:  Solving for Ux, Initial residual = 0.00224176, Final residual = 6.0413e-06, No Iterations 6
smoothSolver:  Solving for Uy, Initial residual = 0.00328408, Final residual = 9.13345e-06, No Iterations 6
DICPCG:  Solving for p, Initial residual = 0.00361044, Final residual = 0.000176089, No Iterations 43
time step continuity errors : sum local = 9.49576e-08, global = -6.81539e-20, cumulative = -3.14623e-19
DICPCG:  Solving for p, Initial residual = 0.00272332, Final residual = 9.08399e-07, No Iterations 116
time step continuity errors : sum local = 4.75733e-10, global = -2.71041e-19, cumulative = -5.85664e-19
ExecutionTime = 1.56 s  ClockTime = 3 s

Time = 0.0825

Courant Number mean: 0.153186 max: 0.946332
smoothSolver:  Solving for Ux, Initial residual = 0.00220285, Final residual = 5.94189e-06, No Iterations 6
smoothSolver:  Solving for Uy, Initial residual = 0.00322461, Final residual = 8.96607e-06, No Iterations 6
DICPCG:  Solving for p, Initial residual = 0.00353596, Final residual = 0.000175886, No Iterations 43
time step continuity errors : sum local = 9.87722e-08, global = -9.54309e-20, cumulative = -6.81094e-19
DICPCG:  Solving for p, Initial residual = 0.00267462, Final residual = 8.9224e-07, No Iterations 116
time step continuity errors : sum local = 4.67387e-10, global = 5.16006e-20, cumulative = -6.29494e-19
ExecutionTime = 1.58 s  ClockTime = 3 s

Time = 0.08375

Courant Number mean: 0.153875 max: 0.946619
smoothSolver:  Solving for Ux, Initial residual = 0.0021616, Final residual = 5.8327e-06, No Iterations 6
smoothSolver:  Solving for Uy, Initial residual = 0.00317479, Final residual = 8.82786e-06, No Iterations 6
DICPCG:  Solving for p, Initial residual = 0.00352465, Final residual = 0.00015002, No Iterations 44
time step continuity errors : sum local = 8.60895e-08, global = 1.67181e-21, cumulative = -6.27822e-19
DICPCG:  Solving for p, Initial residual = 0.00263044, Final residual = 8.55962e-07, No Iterations 116
time step continuity errors : sum local = 4.48688e-10, global = 5.67563e-20, cumulative = -5.71066e-19
ExecutionTime = 1.6 s  ClockTime = 3 s

Time = 0.085

Courant Number mean: 0.154552 max: 0.946899
smoothSolver:  Solving for Ux, Initial residual = 0.00212811, Final residual = 5.74842e-06, No Iterations 6
smoothSolver:  Solving for Uy, Initial residual = 0.00311413, Final residual = 8.65562e-06, No Iterations 6
DICPCG:  Solving for p, Initial residual = 0.00345115, Final residual = 0.000157239, No Iterations 45
time step continuity errors : sum local = 9.67922e-08, global = 1.22759e-19, cumulative = -4.48306e-19
DICPCG:  Solving for p, Initial residual = 0.00258122, Final residual = 8.55262e-07, No Iterations 116
time step continuity errors : sum local = 4.48339e-10, global = -3.78076e-20, cumulative = -4.86114e-19
ExecutionTime = 1.63 s  ClockTime = 3 s

Time = 0.08625

Courant Number mean: 0.155219 max: 0.947172
smoothSolver:  Solving for Ux, Initial residual = 0.00208694, Final residual = 5.63698e-06, No Iterations 6
smoothSolver:  Solving for Uy, Initial residual = 0.00307373, Final residual = 8.54325e-06, No Iterations 6
DICPCG:  Solving for p, Initial residual = 0.00348674, Final residual = 0.000150689, No Iterations 46
time step continuity errors : sum local = 9.66471e-08, global = -4.97084e-21, cumulative = -4.91085e-19
DICPCG:  Solving for p, Initial residual = 0.00257717, Final residual = 9.36043e-07, No Iterations 115
time step continuity errors : sum local = 4.91499e-10, global = -1.30443e-21, cumulative = -4.92389e-19
ExecutionTime = 1.65 s  ClockTime = 3 s

Time = 0.0875

Courant Number mean: 0.155876 max: 0.947437
smoothSolver:  Solving for Ux, Initial residual = 0.00206236, Final residual = 5.57783e-06, No Iterations 6
smoothSolver:  Solving for Uy, Initial residual = 0.00300731, Final residual = 8.35332e-06, No Iterations 6
DICPCG:  Solving for p, Initial residual = 0.00341163, Final residual = 0.000163576, No Iterations 90
time step continuity errors : sum local = 8.6011e-08, global = 2.28567e-20, cumulative = -4.69532e-19
DICPCG:  Solving for p, Initial residual = 0.00251357, Final residual = 8.24731e-07, No Iterations 116
time step continuity errors : sum local = 4.32956e-10, global = 3.82525e-20, cumulative = -4.3128e-19
ExecutionTime = 1.67 s  ClockTime = 3 s

Time = 0.08875

Courant Number mean: 0.156521 max: 0.947696
smoothSolver:  Solving for Ux, Initial residual = 0.00201991, Final residual = 5.46688e-06, No Iterations 6
smoothSolver:  Solving for Uy, Initial residual = 0.0029655, Final residual = 8.2427e-06, No Iterations 6
DICPCG:  Solving for p, Initial residual = 0.00326243, Final residual = 0.00016168, No Iterations 41
time step continuity errors : sum local = 8.76789e-08, global = -1.44374e-19, cumulative = -5.75654e-19
DICPCG:  Solving for p, Initial residual = 0.00243873, Final residual = 9.3333e-07, No Iterations 115
time step continuity errors : sum local = 4.90086e-10, global = 6.77761e-20, cumulative = -5.07878e-19
ExecutionTime = 1.69 s  ClockTime = 3 s

Time = 0.09

Courant Number mean: 0.157159 max: 0.947949
smoothSolver:  Solving for Ux, Initial residual = 0.00198378, Final residual = 5.37129e-06, No Iterations 6
smoothSolver:  Solving for Uy, Initial residual = 0.00292181, Final residual = 8.12122e-06, No Iterations 6
DICPCG:  Solving for p, Initial residual = 0.00327351, Final residual = 0.000161038, No Iterations 42
time step continuity errors : sum local = 8.70076e-08, global = -1.17395e-19, cumulative = -6.25273e-19
DICPCG:  Solving for p, Initial residual = 0.00245681, Final residual = 9.77708e-07, No Iterations 114
time step continuity errors : sum local = 5.1371e-10, global = 8.36006e-22, cumulative = -6.24437e-19
ExecutionTime = 1.71 s  ClockTime = 3 s

Time = 0.09125

Courant Number mean: 0.157791 max: 0.948195
smoothSolver:  Solving for Ux, Initial residual = 0.00195309, Final residual = 5.29212e-06, No Iterations 6
smoothSolver:  Solving for Uy, Initial residual = 0.00287247, Final residual = 7.98227e-06, No Iterations 6
DICPCG:  Solving for p, Initial residual = 0.00320932, Final residual = 0.000158183, No Iterations 42
time step continuity errors : sum local = 8.84973e-08, global = -2.79615e-19, cumulative = -9.04052e-19
DICPCG:  Solving for p, Initial residual = 0.00242849, Final residual = 9.48852e-07, No Iterations 114
time step continuity errors : sum local = 4.98499e-10, global = 1.25339e-19, cumulative = -7.78713e-19
ExecutionTime = 1.73 s  ClockTime = 3 s

Time = 0.0925

Courant Number mean: 0.158416 max: 0.948435
smoothSolver:  Solving for Ux, Initial residual = 0.00191999, Final residual = 5.20387e-06, No Iterations 6
smoothSolver:  Solving for Uy, Initial residual = 0.00283141, Final residual = 7.86846e-06, No Iterations 6
DICPCG:  Solving for p, Initial residual = 0.00319037, Final residual = 0.000151408, No Iterations 43
time step continuity errors : sum local = 8.58933e-08, global = 1.80868e-20, cumulative = -7.60626e-19
DICPCG:  Solving for p, Initial residual = 0.00239227, Final residual = 9.05981e-07, No Iterations 114
time step continuity errors : sum local = 4.76373e-10, global = 3.40401e-19, cumulative = -4.20225e-19
ExecutionTime = 1.75 s  ClockTime = 3 s

Time = 0.09375

Courant Number mean: 0.159033 max: 0.948669
smoothSolver:  Solving for Ux, Initial residual = 0.00189301, Final residual = 5.13573e-06, No Iterations 6
smoothSolver:  Solving for Uy, Initial residual = 0.00278141, Final residual = 7.72684e-06, No Iterations 6
DICPCG:  Solving for p, Initial residual = 0.00314725, Final residual = 0.000150402, No Iterations 44
time step continuity errors : sum local = 9.09225e-08, global = -1.01526e-19, cumulative = -5.21751e-19
DICPCG:  Solving for p, Initial residual = 0.00236973, Final residual = 9.78704e-07, No Iterations 113
time step continuity errors : sum local = 5.14547e-10, global = 1.22551e-19, cumulative = -3.992e-19
ExecutionTime = 1.77 s  ClockTime = 3 s

Time = 0.095

Courant Number mean: 0.159642 max: 0.948898
smoothSolver:  Solving for Ux, Initial residual = 0.00185974, Final residual = 5.0453e-06, No Iterations 6
smoothSolver:  Solving for Uy, Initial residual = 0.00274775, Final residual = 7.63346e-06, No Iterations 6
DICPCG:  Solving for p, Initial residual = 0.00317279, Final residual = 0.000147899, No Iterations 45
time step continuity errors : sum local = 9.23905e-08, global = -2.32922e-19, cumulative = -6.32122e-19
DICPCG:  Solving for p, Initial residual = 0.00235651, Final residual = 9.25321e-07, No Iterations 113
time step continuity errors : sum local = 4.87467e-10, global = -7.05158e-20, cumulative = -7.02638e-19
ExecutionTime = 1.79 s  ClockTime = 3 s

Time = 0.09625

Courant Number mean: 0.160242 max: 0.949121
smoothSolver:  Solving for Ux, Initial residual = 0.00183966, Final residual = 4.99658e-06, No Iterations 6
smoothSolver:  Solving for Uy, Initial residual = 0.00269274, Final residual = 7.47675e-06, No Iterations 6
DICPCG:  Solving for p, Initial residual = 0.0031051, Final residual = 0.000151299, No Iterations 89
time step continuity errors : sum local = 7.9754e-08, global = 3.74836e-19, cumulative = -3.27802e-19
DICPCG:  Solving for p, Initial residual = 0.00228738, Final residual = 9.2803e-07, No Iterations 113
time step continuity errors : sum local = 4.88727e-10, global = 3.29339e-19, cumulative = 1.53666e-21
ExecutionTime = 1.82 s  ClockTime = 3 s

Time = 0.0975

Courant Number mean: 0.160835 max: 0.949339
smoothSolver:  Solving for Ux, Initial residual = 0.00180547, Final residual = 4.90687e-06, No Iterations 6
smoothSolver:  Solving for Uy, Initial residual = 0.00265767, Final residual = 7.38408e-06, No Iterations 6
DICPCG:  Solving for p, Initial residual = 0.00296805, Final residual = 0.000148368, No Iterations 37
time step continuity errors : sum local = 8.06457e-08, global = -5.73288e-20, cumulative = -5.57921e-20
DICPCG:  Solving for p, Initial residual = 0.0022111, Final residual = 9.20465e-07, No Iterations 113
time step continuity errors : sum local = 4.84816e-10, global = 7.29327e-20, cumulative = 1.71406e-20
ExecutionTime = 1.84 s  ClockTime = 3 s

Time = 0.09875

Courant Number mean: 0.161419 max: 0.949551
smoothSolver:  Solving for Ux, Initial residual = 0.00177483, Final residual = 4.8251e-06, No Iterations 6
smoothSolver:  Solving for Uy, Initial residual = 0.00262277, Final residual = 7.28741e-06, No Iterations 6
DICPCG:  Solving for p, Initial residual = 0.00298342, Final residual = 0.000147502, No Iterations 41
time step continuity errors : sum local = 7.99122e-08, global = 7.68877e-20, cumulative = 9.40283e-20
DICPCG:  Solving for p, Initial residual = 0.00221191, Final residual = 9.02043e-07, No Iterations 113
time step continuity errors : sum local = 4.75386e-10, global = -2.27782e-19, cumulative = -1.33754e-19
ExecutionTime = 1.86 s  ClockTime = 3 s

Time = 0.1

Courant Number mean: 0.161996 max: 0.949759
smoothSolver:  Solving for Ux, Initial residual = 0.0017505, Final residual = 4.76196e-06, No Iterations 6
smoothSolver:  Solving for Uy, Initial residual = 0.00257998, Final residual = 7.16758e-06, No Iterations 6
DICPCG:  Solving for p, Initial residual = 0.00293701, Final residual = 0.000146727, No Iterations 37
time step continuity errors : sum local = 8.18272e-08, global = 6.24948e-20, cumulative = -7.12588e-20
DICPCG:  Solving for p, Initial residual = 0.00217847, Final residual = 8.67281e-07, No Iterations 113
time step continuity errors : sum local = 4.57095e-10, global = 4.43219e-20, cumulative = -2.69369e-20
ExecutionTime = 1.9 s  ClockTime = 3 s

Time = 0.10125

Courant Number mean: 0.162565 max: 0.949961
smoothSolver:  Solving for Ux, Initial residual = 0.00172225, Final residual = 4.68604e-06, No Iterations 6
smoothSolver:  Solving for Uy, Initial residual = 0.0025474, Final residual = 7.07745e-06, No Iterations 6
DICPCG:  Solving for p, Initial residual = 0.00292288, Final residual = 0.000144374, No Iterations 37
time step continuity errors : sum local = 8.17319e-08, global = -1.85348e-19, cumulative = -2.12285e-19
DICPCG:  Solving for p, Initial residual = 0.00219753, Final residual = 8.46217e-07, No Iterations 113
time step continuity errors : sum local = 4.46254e-10, global = -4.89872e-20, cumulative = -2.61272e-19
ExecutionTime = 1.92 s  ClockTime = 3 s

Time = 0.1025

Courant Number mean: 0.163127 max: 0.950159
smoothSolver:  Solving for Ux, Initial residual = 0.00170016, Final residual = 4.62932e-06, No Iterations 6
smoothSolver:  Solving for Uy, Initial residual = 0.00250571, Final residual = 6.95923e-06, No Iterations 6
DICPCG:  Solving for p, Initial residual = 0.00287845, Final residual = 0.000132975, No Iterations 44
time step continuity errors : sum local = 8.01315e-08, global = -2.10533e-19, cumulative = -4.71805e-19
DICPCG:  Solving for p, Initial residual = 0.00214554, Final residual = 8.03907e-07, No Iterations 113
time step continuity errors : sum local = 4.23843e-10, global = 6.5532e-20, cumulative = -4.06273e-19
ExecutionTime = 1.95 s  ClockTime = 3 s

Time = 0.10375

Courant Number mean: 0.163682 max: 0.950353
smoothSolver:  Solving for Ux, Initial residual = 0.00167405, Final residual = 4.55838e-06, No Iterations 6
smoothSolver:  Solving for Uy, Initial residual = 0.0024747, Final residual = 6.87345e-06, No Iterations 6
DICPCG:  Solving for p, Initial residual = 0.00290016, Final residual = 0.000127324, No Iterations 45
time step continuity errors : sum local = 7.94793e-08, global = 3.7422e-19, cumulative = -3.20526e-20
DICPCG:  Solving for p, Initial residual = 0.00215791, Final residual = 7.38318e-07, No Iterations 113
time step continuity errors : sum local = 3.89958e-10, global = -7.92493e-20, cumulative = -1.11302e-19
ExecutionTime = 1.97 s  ClockTime = 3 s

Time = 0.105

Courant Number mean: 0.164229 max: 0.950541
smoothSolver:  Solving for Ux, Initial residual = 0.00165748, Final residual = 4.51794e-06, No Iterations 6
smoothSolver:  Solving for Uy, Initial residual = 0.00242846, Final residual = 6.74199e-06, No Iterations 6
DICPCG:  Solving for p, Initial residual = 0.0028342, Final residual = 0.000137059, No Iterations 81
time step continuity errors : sum local = 7.23286e-08, global = -1.1307e-19, cumulative = -2.24372e-19
DICPCG:  Solving for p, Initial residual = 0.00210533, Final residual = 7.79276e-07, No Iterations 113
time step continuity errors : sum local = 4.11185e-10, global = -3.51974e-19, cumulative = -5.76346e-19
ExecutionTime = 1.99 s  ClockTime = 3 s

Time = 0.10625

Courant Number mean: 0.164768 max: 0.950726
smoothSolver:  Solving for Ux, Initial residual = 0.00163027, Final residual = 4.44656e-06, No Iterations 6
smoothSolver:  Solving for Uy, Initial residual = 0.00240003, Final residual = 6.66742e-06, No Iterations 6
DICPCG:  Solving for p, Initial residual = 0.00272883, Final residual = 0.000127818, No Iterations 41
time step continuity errors : sum local = 6.89893e-08, global = -8.35478e-20, cumulative = -6.59894e-19
DICPCG:  Solving for p, Initial residual = 0.00203078, Final residual = 7.74301e-07, No Iterations 113
time step continuity errors : sum local = 4.08709e-10, global = 1.51126e-19, cumulative = -5.08768e-19
ExecutionTime = 2.01 s  ClockTime = 3 s

Time = 0.1075

Courant Number mean: 0.1653 max: 0.950907
smoothSolver:  Solving for Ux, Initial residual = 0.00160481, Final residual = 4.37846e-06, No Iterations 6
smoothSolver:  Solving for Uy, Initial residual = 0.00236714, Final residual = 6.57596e-06, No Iterations 6
DICPCG:  Solving for p, Initial residual = 0.00272612, Final residual = 0.000130504, No Iterations 37
time step continuity errors : sum local = 6.95636e-08, global = -1.06292e-19, cumulative = -6.1506e-19
DICPCG:  Solving for p, Initial residual = 0.00202181, Final residual = 9.80731e-07, No Iterations 81
time step continuity errors : sum local = 5.5493e-10, global = -1.81443e-19, cumulative = -7.96503e-19
ExecutionTime = 2.02 s  ClockTime = 3 s

Time = 0.10875

Courant Number mean: 0.165826 max: 0.951083
smoothSolver:  Solving for Ux, Initial residual = 0.00158256, Final residual = 4.32016e-06, No Iterations 6
smoothSolver:  Solving for Uy, Initial residual = 0.00233508, Final residual = 6.48601e-06, No Iterations 6
DICPCG:  Solving for p, Initial residual = 0.00268694, Final residual = 0.000126133, No Iterations 37
time step continuity errors : sum local = 6.88588e-08, global = -2.96551e-20, cumulative = -8.26158e-19
DICPCG:  Solving for p, Initial residual = 0.00202958, Final residual = 9.19159e-07, No Iterations 112
time step continuity errors : sum local = 4.85601e-10, global = -1.30574e-19, cumulative = -9.56732e-19
ExecutionTime = 2.04 s  ClockTime = 3 s

Time = 0.11

Courant Number mean: 0.166345 max: 0.951255
smoothSolver:  Solving for Ux, Initial residual = 0.00156052, Final residual = 4.26112e-06, No Iterations 6
smoothSolver:  Solving for Uy, Initial residual = 0.00230402, Final residual = 6.39987e-06, No Iterations 6
DICPCG:  Solving for p, Initial residual = 0.00265461, Final residual = 0.000120305, No Iterations 37
time step continuity errors : sum local = 6.59711e-08, global = 2.96739e-19, cumulative = -6.59993e-19
DICPCG:  Solving for p, Initial residual = 0.00199633, Final residual = 8.87375e-07, No Iterations 112
time step continuity errors : sum local = 4.69249e-10, global = 1.43448e-19, cumulative = -5.16545e-19
ExecutionTime = 2.06 s  ClockTime = 3 s

Time = 0.11125

Courant Number mean: 0.166858 max: 0.951424
smoothSolver:  Solving for Ux, Initial residual = 0.00154095, Final residual = 4.21003e-06, No Iterations 6
smoothSolver:  Solving for Uy, Initial residual = 0.0022704, Final residual = 6.30529e-06, No Iterations 6
DICPCG:  Solving for p, Initial residual = 0.00261847, Final residual = 0.000122952, No Iterations 37
time step continuity errors : sum local = 6.97577e-08, global = 6.04876e-20, cumulative = -4.56057e-19
DICPCG:  Solving for p, Initial residual = 0.00197544, Final residual = 8.59609e-07, No Iterations 112
time step continuity errors : sum local = 4.54421e-10, global = -1.27839e-19, cumulative = -5.83897e-19
ExecutionTime = 2.08 s  ClockTime = 3 s

Time = 0.1125

Courant Number mean: 0.167365 max: 0.951589
smoothSolver:  Solving for Ux, Initial residual = 0.00151893, Final residual = 4.15013e-06, No Iterations 6
smoothSolver:  Solving for Uy, Initial residual = 0.00224344, Final residual = 6.23091e-06, No Iterations 6
DICPCG:  Solving for p, Initial residual = 0.0026069, Final residual = 0.000121955, No Iterations 37
time step continuity errors : sum local = 7.06424e-08, global = 6.73015e-20, cumulative = -5.16595e-19
DICPCG:  Solving for p, Initial residual = 0.00195804, Final residual = 8.36529e-07, No Iterations 112
time step continuity errors : sum local = 4.42642e-10, global = 7.84049e-20, cumulative = -4.3819e-19
ExecutionTime = 2.1 s  ClockTime = 3 s

Time = 0.11375

Courant Number mean: 0.167868 max: 0.95175
smoothSolver:  Solving for Ux, Initial residual = 0.00150232, Final residual = 4.10754e-06, No Iterations 6
smoothSolver:  Solving for Uy, Initial residual = 0.00220819, Final residual = 6.13108e-06, No Iterations 6
DICPCG:  Solving for p, Initial residual = 0.00257579, Final residual = 0.000119556, No Iterations 45
time step continuity errors : sum local = 7.41324e-08, global = 1.9156e-19, cumulative = -2.46631e-19
DICPCG:  Solving for p, Initial residual = 0.00192007, Final residual = 7.94078e-07, No Iterations 112
time step continuity errors : sum local = 4.20032e-10, global = -2.01039e-19, cumulative = -4.4767e-19
ExecutionTime = 2.12 s  ClockTime = 3 s

Time = 0.115

Courant Number mean: 0.168365 max: 0.951908
smoothSolver:  Solving for Ux, Initial residual = 0.00148071, Final residual = 4.04824e-06, No Iterations 6
smoothSolver:  Solving for Uy, Initial residual = 0.0021845, Final residual = 6.06558e-06, No Iterations 6
DICPCG:  Solving for p, Initial residual = 0.00260984, Final residual = 0.000114981, No Iterations 46
time step continuity errors : sum local = 7.41852e-08, global = 1.01567e-19, cumulative = -3.46102e-19
DICPCG:  Solving for p, Initial residual = 0.00193858, Final residual = 9.59707e-07, No Iterations 111
time step continuity errors : sum local = 5.07698e-10, global = 9.15404e-21, cumulative = -3.36948e-19
ExecutionTime = 2.14 s  ClockTime = 3 s

Time = 0.11625

Courant Number mean: 0.168858 max: 0.952064
smoothSolver:  Solving for Ux, Initial residual = 0.00146946, Final residual = 4.02126e-06, No Iterations 6
smoothSolver:  Solving for Uy, Initial residual = 0.00214417, Final residual = 5.95115e-06, No Iterations 6
DICPCG:  Solving for p, Initial residual = 0.00255364, Final residual = 0.000123604, No Iterations 80
time step continuity errors : sum local = 6.53705e-08, global = -1.29915e-19, cumulative = -4.66864e-19
DICPCG:  Solving for p, Initial residual = 0.00189619, Final residual = 9.20213e-07, No Iterations 111
time step continuity errors : sum local = 4.87616e-10, global = -4.55863e-20, cumulative = -5.1245e-19
ExecutionTime = 2.17 s  ClockTime = 3 s

Time = 0.1175

Courant Number mean: 0.169345 max: 0.952217
smoothSolver:  Solving for Ux, Initial residual = 0.00144575, Final residual = 3.95896e-06, No Iterations 6
smoothSolver:  Solving for Uy, Initial residual = 0.00212233, Final residual = 5.89518e-06, No Iterations 6
DICPCG:  Solving for p, Initial residual = 0.0024388, Final residual = 0.000117601, No Iterations 37
time step continuity errors : sum local = 6.3899e-08, global = -5.14849e-20, cumulative = -5.63935e-19
DICPCG:  Solving for p, Initial residual = 0.00181987, Final residual = 9.75093e-07, No Iterations 111
time step continuity errors : sum local = 5.16293e-10, global = 8.68679e-21, cumulative = -5.55248e-19
ExecutionTime = 2.19 s  ClockTime = 3 s

Time = 0.11875

Courant Number mean: 0.169826 max: 0.952366
smoothSolver:  Solving for Ux, Initial residual = 0.00142445, Final residual = 3.90156e-06, No Iterations 6
smoothSolver:  Solving for Uy, Initial residual = 0.00209647, Final residual = 5.82356e-06, No Iterations 6
DICPCG:  Solving for p, Initial residual = 0.00244405, Final residual = 0.00011052, No Iterations 37
time step continuity errors : sum local = 5.92491e-08, global = -2.6612e-21, cumulative = -5.57909e-19
DICPCG:  Solving for p, Initial residual = 0.0018425, Final residual = 9.72688e-07, No Iterations 68
time step continuity errors : sum local = 5.55155e-10, global = -8.66881e-20, cumulative = -6.44597e-19
ExecutionTime = 2.2 s  ClockTime = 3 s

Time = 0.12

Courant Number mean: 0.170302 max: 0.952513
smoothSolver:  Solving for Ux, Initial residual = 0.00140739, Final residual = 3.85668e-06, No Iterations 6
smoothSolver:  Solving for Uy, Initial residual = 0.00206846, Final residual = 5.74552e-06, No Iterations 6
DICPCG:  Solving for p, Initial residual = 0.00239815, Final residual = 0.000105525, No Iterations 37
time step continuity errors : sum local = 5.78907e-08, global = -2.04049e-20, cumulative = -6.65002e-19
DICPCG:  Solving for p, Initial residual = 0.00181019, Final residual = 9.49995e-07, No Iterations 110
time step continuity errors : sum local = 5.03677e-10, global = -1.8745e-19, cumulative = -8.52453e-19
ExecutionTime = 2.22 s  ClockTime = 3 s

Time = 0.12125

Courant Number mean: 0.170772 max: 0.952657
smoothSolver:  Solving for Ux, Initial residual = 0.00138953, Final residual = 3.80855e-06, No Iterations 6
smoothSolver:  Solving for Uy, Initial residual = 0.00204288, Final residual = 5.67491e-06, No Iterations 6
DICPCG:  Solving for p, Initial residual = 0.0023768, Final residual = 0.000102605, No Iterations 37
time step continuity errors : sum local = 5.62784e-08, global = -3.05558e-19, cumulative = -1.15801e-18
DICPCG:  Solving for p, Initial residual = 0.00178769, Final residual = 9.91584e-07, No Iterations 109
time step continuity errors : sum local = 5.26043e-10, global = 4.87335e-20, cumulative = -1.10928e-18
ExecutionTime = 2.24 s  ClockTime = 3 s

Time = 0.1225

Courant Number mean: 0.171238 max: 0.952797
smoothSolver:  Solving for Ux, Initial residual = 0.00137368, Final residual = 3.76692e-06, No Iterations 6
smoothSolver:  Solving for Uy, Initial residual = 0.002015, Final residual = 5.59683e-06, No Iterations 6
DICPCG:  Solving for p, Initial residual = 0.00234488, Final residual = 0.00010447, No Iterations 37
time step continuity errors : sum local = 5.94417e-08, global = 5.06816e-20, cumulative = -1.0586e-18
DICPCG:  Solving for p, Initial residual = 0.00176846, Final residual = 9.72921e-07, No Iterations 109
time step continuity errors : sum local = 5.1627e-10, global = 1.40592e-19, cumulative = -9.18003e-19
ExecutionTime = 2.27 s  ClockTime = 3 s

Time = 0.12375

Courant Number mean: 0.171698 max: 0.952935
smoothSolver:  Solving for Ux, Initial residual = 0.00135573, Final residual = 9.92975e-06, No Iterations 5
smoothSolver:  Solving for Uy, Initial residual = 0.00199266, Final residual = 5.5352e-06, No Iterations 6
DICPCG:  Solving for p, Initial residual = 0.00234792, Final residual = 0.000109543, No Iterations 37
time step continuity errors : sum local = 6.37586e-08, global = 3.3665e-20, cumulative = -8.84338e-19
DICPCG:  Solving for p, Initial residual = 0.00177535, Final residual = 9.08227e-07, No Iterations 109
time step continuity errors : sum local = 4.82301e-10, global = 1.22307e-19, cumulative = -7.62031e-19
ExecutionTime = 2.28 s  ClockTime = 3 s

Time = 0.125

Courant Number mean: 0.172152 max: 0.95307
smoothSolver:  Solving for Ux, Initial residual = 0.00134252, Final residual = 9.83752e-06, No Iterations 5
smoothSolver:  Solving for Uy, Initial residual = 0.00196311, Final residual = 5.45159e-06, No Iterations 6
DICPCG:  Solving for p, Initial residual = 0.00232739, Final residual = 0.00011587, No Iterations 44
time step continuity errors : sum local = 7.06727e-08, global = -3.20715e-19, cumulative = -1.08275e-18
DICPCG:  Solving for p, Initial residual = 0.00174819, Final residual = 9.5396e-07, No Iterations 108
time step continuity errors : sum local = 5.06794e-10, global = 1.08848e-20, cumulative = -1.07186e-18
ExecutionTime = 2.32 s  ClockTime = 3 s

Time = 0.12625

Courant Number mean: 0.172601 max: 0.953202
smoothSolver:  Solving for Ux, Initial residual = 0.00132444, Final residual = 9.7044e-06, No Iterations 5
smoothSolver:  Solving for Uy, Initial residual = 0.00194395, Final residual = 5.39847e-06, No Iterations 6
DICPCG:  Solving for p, Initial residual = 0.00236025, Final residual = 0.00010346, No Iterations 46
time step continuity errors : sum local = 6.66957e-08, global = -1.56989e-19, cumulative = -1.22885e-18
DICPCG:  Solving for p, Initial residual = 0.00174635, Final residual = 9.09766e-07, No Iterations 108
time step continuity errors : sum local = 4.83823e-10, global = 7.02092e-20, cumulative = -1.15864e-18
ExecutionTime = 2.34 s  ClockTime = 3 s

Time = 0.1275

Courant Number mean: 0.173045 max: 0.953331
smoothSolver:  Solving for Ux, Initial residual = 0.00131593, Final residual = 9.64856e-06, No Iterations 5
smoothSolver:  Solving for Uy, Initial residual = 0.00190973, Final residual = 5.30136e-06, No Iterations 6
DICPCG:  Solving for p, Initial residual = 0.00230534, Final residual = 0.000109405, No Iterations 77
time step continuity errors : sum local = 5.82061e-08, global = 2.90017e-20, cumulative = -1.12964e-18
DICPCG:  Solving for p, Initial residual = 0.00170517, Final residual = 9.12002e-07, No Iterations 108
time step continuity errors : sum local = 4.84936e-10, global = 4.01747e-20, cumulative = -1.08946e-18
ExecutionTime = 2.36 s  ClockTime = 3 s

Time = 0.12875

Courant Number mean: 0.173484 max: 0.953458
smoothSolver:  Solving for Ux, Initial residual = 0.00129647, Final residual = 9.5114e-06, No Iterations 5
smoothSolver:  Solving for Uy, Initial residual = 0.00189129, Final residual = 5.25421e-06, No Iterations 6
DICPCG:  Solving for p, Initial residual = 0.00219465, Final residual = 0.000104683, No Iterations 38
time step continuity errors : sum local = 5.66774e-08, global = -5.78629e-20, cumulative = -1.14733e-18
DICPCG:  Solving for p, Initial residual = 0.00164508, Final residual = 9.24532e-07, No Iterations 108
time step continuity errors : sum local = 4.91663e-10, global = 7.8463e-21, cumulative = -1.13948e-18
ExecutionTime = 2.38 s  ClockTime = 3 s

Time = 0.13

Courant Number mean: 0.173918 max: 0.953582
smoothSolver:  Solving for Ux, Initial residual = 0.00127877, Final residual = 9.383e-06, No Iterations 5
smoothSolver:  Solving for Uy, Initial residual = 0.00187014, Final residual = 5.1954e-06, No Iterations 6
DICPCG:  Solving for p, Initial residual = 0.00221088, Final residual = 9.91287e-05, No Iterations 37
time step continuity errors : sum local = 5.38476e-08, global = -4.31536e-20, cumulative = -1.18263e-18
DICPCG:  Solving for p, Initial residual = 0.00166675, Final residual = 8.58028e-07, No Iterations 108
time step continuity errors : sum local = 4.55716e-10, global = -1.79694e-22, cumulative = -1.18281e-18
ExecutionTime = 2.4 s  ClockTime = 3 s

Time = 0.13125

Courant Number mean: 0.174347 max: 0.953703
smoothSolver:  Solving for Ux, Initial residual = 0.00126506, Final residual = 9.286e-06, No Iterations 5
smoothSolver:  Solving for Uy, Initial residual = 0.00184662, Final residual = 5.12959e-06, No Iterations 6
DICPCG:  Solving for p, Initial residual = 0.00217318, Final residual = 9.48906e-05, No Iterations 37
time step continuity errors : sum local = 5.22554e-08, global = 1.32379e-19, cumulative = -1.05043e-18
DICPCG:  Solving for p, Initial residual = 0.00164692, Final residual = 8.43186e-07, No Iterations 108
time step continuity errors : sum local = 4.48598e-10, global = 5.12255e-20, cumulative = -9.99209e-19
ExecutionTime = 2.42 s  ClockTime = 3 s

Time = 0.1325

Courant Number mean: 0.174772 max: 0.953822
smoothSolver:  Solving for Ux, Initial residual = 0.00125007, Final residual = 9.17733e-06, No Iterations 5
smoothSolver:  Solving for Uy, Initial residual = 0.00182559, Final residual = 5.07163e-06, No Iterations 6
DICPCG:  Solving for p, Initial residual = 0.00215214, Final residual = 9.07032e-05, No Iterations 37
time step continuity errors : sum local = 5.09105e-08, global = 8.78631e-20, cumulative = -9.11346e-19
DICPCG:  Solving for p, Initial residual = 0.00162531, Final residual = 8.24944e-07, No Iterations 108
time step continuity errors : sum local = 4.38982e-10, global = 1.58398e-19, cumulative = -7.52948e-19
ExecutionTime = 2.44 s  ClockTime = 3 s

Time = 0.13375

Courant Number mean: 0.175192 max: 0.953939
smoothSolver:  Solving for Ux, Initial residual = 0.00123762, Final residual = 9.08923e-06, No Iterations 5
smoothSolver:  Solving for Uy, Initial residual = 0.00180152, Final residual = 5.00406e-06, No Iterations 6
DICPCG:  Solving for p, Initial residual = 0.00212579, Final residual = 9.6534e-05, No Iterations 37
time step continuity errors : sum local = 5.56546e-08, global = -3.06186e-21, cumulative = -7.5601e-19
DICPCG:  Solving for p, Initial residual = 0.00160979, Final residual = 8.11847e-07, No Iterations 108
time step continuity errors : sum local = 4.32026e-10, global = 3.46236e-19, cumulative = -4.09774e-19
ExecutionTime = 2.46 s  ClockTime = 3 s

Time = 0.135

Courant Number mean: 0.175608 max: 0.954053
smoothSolver:  Solving for Ux, Initial residual = 0.00122208, Final residual = 8.9749e-06, No Iterations 5
smoothSolver:  Solving for Uy, Initial residual = 0.00178397, Final residual = 4.95563e-06, No Iterations 6
DICPCG:  Solving for p, Initial residual = 0.00212075, Final residual = 9.54987e-05, No Iterations 37
time step continuity errors : sum local = 5.72384e-08, global = 9.25731e-20, cumulative = -3.17201e-19
DICPCG:  Solving for p, Initial residual = 0.00159958, Final residual = 7.8747e-07, No Iterations 108
time step continuity errors : sum local = 4.19345e-10, global = -1.77559e-19, cumulative = -4.9476e-19
ExecutionTime = 2.48 s  ClockTime = 4 s

Time = 0.13625

Courant Number mean: 0.176019 max: 0.954165
smoothSolver:  Solving for Ux, Initial residual = 0.00121217, Final residual = 8.90555e-06, No Iterations 5
smoothSolver:  Solving for Uy, Initial residual = 0.00175768, Final residual = 4.88136e-06, No Iterations 6
DICPCG:  Solving for p, Initial residual = 0.00209922, Final residual = 0.000102558, No Iterations 46
time step continuity errors : sum local = 6.53627e-08, global = 2.18851e-19, cumulative = -2.75908e-19
DICPCG:  Solving for p, Initial residual = 0.00157185, Final residual = 9.80649e-07, No Iterations 107
time step continuity errors : sum local = 5.21986e-10, global = -9.84961e-20, cumulative = -3.74404e-19
[...]
time step continuity errors : sum local = 6.17712e-10, global = -6.36423e-20, cumulative = 1.56317e-17
DICPCG:  Solving for p, Initial residual = 1.15956e-06, Final residual = 9.87904e-07, No Iterations 1
time step continuity errors : sum local = 6.17842e-10, global = -2.29779e-19, cumulative = 1.54019e-17
ExecutionTime = 21.93 s  ClockTime = 25 s

Time = 2.4675

Courant Number mean: 0.23086 max: 0.961856
smoothSolver:  Solving for Ux, Initial residual = 3.99565e-07, Final residual = 3.99565e-07, No Iterations 0
smoothSolver:  Solving for Uy, Initial residual = 4.90688e-07, Final residual = 4.90688e-07, No Iterations 0
DICPCG:  Solving for p, Initial residual = 1.17881e-06, Final residual = 8.76708e-07, No Iterations 3
time step continuity errors : sum local = 5.54401e-10, global = -9.75957e-20, cumulative = 1.53043e-17
DICPCG:  Solving for p, Initial residual = 1.45739e-06, Final residual = 7.55343e-07, No Iterations 2
time step continuity errors : sum local = 4.85692e-10, global = -2.75996e-20, cumulative = 1.52767e-17
ExecutionTime = 21.94 s  ClockTime = 25 s

Time = 2.46875

Courant Number mean: 0.23086 max: 0.961856
smoothSolver:  Solving for Ux, Initial residual = 4.04797e-07, Final residual = 4.04797e-07, No Iterations 0
smoothSolver:  Solving for Uy, Initial residual = 4.84554e-07, Final residual = 4.84554e-07, No Iterations 0
DICPCG:  Solving for p, Initial residual = 1.69884e-06, Final residual = 9.11252e-07, No Iterations 2
time step continuity errors : sum local = 5.71667e-10, global = -1.25039e-19, cumulative = 1.51517e-17
DICPCG:  Solving for p, Initial residual = 1.5878e-06, Final residual = 9.696e-07, No Iterations 2
time step continuity errors : sum local = 6.02262e-10, global = -2.95057e-19, cumulative = 1.48566e-17
ExecutionTime = 21.94 s  ClockTime = 25 s

Time = 2.47

Courant Number mean: 0.23086 max: 0.961856
smoothSolver:  Solving for Ux, Initial residual = 4.04001e-07, Final residual = 4.04001e-07, No Iterations 0
smoothSolver:  Solving for Uy, Initial residual = 4.81778e-07, Final residual = 4.81778e-07, No Iterations 0
DICPCG:  Solving for p, Initial residual = 1.65533e-06, Final residual = 9.47425e-07, No Iterations 1
time step continuity errors : sum local = 5.90215e-10, global = -1.07926e-19, cumulative = 1.47487e-17
DICPCG:  Solving for p, Initial residual = 1.12251e-06, Final residual = 8.41752e-07, No Iterations 1
time step continuity errors : sum local = 5.3241e-10, global = -1.8598e-19, cumulative = 1.45627e-17
ExecutionTime = 21.94 s  ClockTime = 25 s

Time = 2.47125

Courant Number mean: 0.23086 max: 0.961856
smoothSolver:  Solving for Ux, Initial residual = 4.02177e-07, Final residual = 4.02177e-07, No Iterations 0
smoothSolver:  Solving for Uy, Initial residual = 4.7861e-07, Final residual = 4.7861e-07, No Iterations 0
DICPCG:  Solving for p, Initial residual = 1.01941e-06, Final residual = 9.66429e-07, No Iterations 1
time step continuity errors : sum local = 6.00312e-10, global = -1.33797e-19, cumulative = 1.44289e-17
DICPCG:  Solving for p, Initial residual = 1.09694e-06, Final residual = 9.54252e-07, No Iterations 1
time step continuity errors : sum local = 5.93868e-10, global = -1.71602e-19, cumulative = 1.42573e-17
ExecutionTime = 21.95 s  ClockTime = 25 s

Time = 2.4725

Courant Number mean: 0.23086 max: 0.961856
smoothSolver:  Solving for Ux, Initial residual = 4.01652e-07, Final residual = 4.01652e-07, No Iterations 0
smoothSolver:  Solving for Uy, Initial residual = 4.7668e-07, Final residual = 4.7668e-07, No Iterations 0
DICPCG:  Solving for p, Initial residual = 1.12594e-06, Final residual = 9.82572e-07, No Iterations 6
time step continuity errors : sum local = 6.16766e-10, global = 1.39716e-19, cumulative = 1.4397e-17
DICPCG:  Solving for p, Initial residual = 1.66074e-06, Final residual = 8.35146e-07, No Iterations 5
time step continuity errors : sum local = 5.35945e-10, global = 2.8936e-20, cumulative = 1.4426e-17
ExecutionTime = 21.95 s  ClockTime = 25 s

Time = 2.47375

Courant Number mean: 0.23086 max: 0.961856
smoothSolver:  Solving for Ux, Initial residual = 3.9001e-07, Final residual = 3.9001e-07, No Iterations 0
smoothSolver:  Solving for Uy, Initial residual = 4.92588e-07, Final residual = 4.92588e-07, No Iterations 0
DICPCG:  Solving for p, Initial residual = 1.58751e-06, Final residual = 8.27855e-07, No Iterations 3
time step continuity errors : sum local = 5.3363e-10, global = -1.79443e-21, cumulative = 1.44242e-17
DICPCG:  Solving for p, Initial residual = 1.43917e-06, Final residual = 8.4536e-07, No Iterations 2
time step continuity errors : sum local = 5.42169e-10, global = 3.19178e-19, cumulative = 1.47434e-17
ExecutionTime = 21.95 s  ClockTime = 25 s

Time = 2.475

Courant Number mean: 0.23086 max: 0.961856
smoothSolver:  Solving for Ux, Initial residual = 3.89382e-07, Final residual = 3.89382e-07, No Iterations 0
smoothSolver:  Solving for Uy, Initial residual = 4.88544e-07, Final residual = 4.88544e-07, No Iterations 0
DICPCG:  Solving for p, Initial residual = 1.55732e-06, Final residual = 9.62622e-07, No Iterations 1
time step continuity errors : sum local = 6.06632e-10, global = -1.42111e-19, cumulative = 1.46012e-17
DICPCG:  Solving for p, Initial residual = 1.19525e-06, Final residual = 9.1258e-07, No Iterations 1
time step continuity errors : sum local = 5.7961e-10, global = 1.10379e-19, cumulative = 1.47116e-17
ExecutionTime = 21.97 s  ClockTime = 26 s

Time = 2.47625

Courant Number mean: 0.23086 max: 0.961856
smoothSolver:  Solving for Ux, Initial residual = 3.88737e-07, Final residual = 3.88737e-07, No Iterations 0
smoothSolver:  Solving for Uy, Initial residual = 4.85733e-07, Final residual = 4.85733e-07, No Iterations 0
DICPCG:  Solving for p, Initial residual = 1.17973e-06, Final residual = 8.17552e-07, No Iterations 6
time step continuity errors : sum local = 5.23994e-10, global = 1.39914e-19, cumulative = 1.48515e-17
DICPCG:  Solving for p, Initial residual = 1.36749e-06, Final residual = 8.29317e-07, No Iterations 5
time step continuity errors : sum local = 5.2668e-10, global = -5.66016e-20, cumulative = 1.47949e-17
ExecutionTime = 21.98 s  ClockTime = 26 s

Time = 2.4775

Courant Number mean: 0.23086 max: 0.961856
smoothSolver:  Solving for Ux, Initial residual = 3.94389e-07, Final residual = 3.94389e-07, No Iterations 0
smoothSolver:  Solving for Uy, Initial residual = 4.76973e-07, Final residual = 4.76973e-07, No Iterations 0
DICPCG:  Solving for p, Initial residual = 1.54163e-06, Final residual = 9.39402e-07, No Iterations 8
time step continuity errors : sum local = 5.8838e-10, global = -1.60576e-19, cumulative = 1.46344e-17
DICPCG:  Solving for p, Initial residual = 1.49263e-06, Final residual = 9.06137e-07, No Iterations 3
time step continuity errors : sum local = 5.71735e-10, global = -6.07957e-20, cumulative = 1.45736e-17
ExecutionTime = 21.98 s  ClockTime = 26 s

Time = 2.47875

Courant Number mean: 0.23086 max: 0.961856
smoothSolver:  Solving for Ux, Initial residual = 3.92422e-07, Final residual = 3.92422e-07, No Iterations 0
smoothSolver:  Solving for Uy, Initial residual = 4.75282e-07, Final residual = 4.75282e-07, No Iterations 0
DICPCG:  Solving for p, Initial residual = 1.69354e-06, Final residual = 7.4897e-07, No Iterations 2
time step continuity errors : sum local = 4.85075e-10, global = -1.93895e-19, cumulative = 1.43797e-17
DICPCG:  Solving for p, Initial residual = 1.26791e-06, Final residual = 8.18203e-07, No Iterations 1
time step continuity errors : sum local = 5.22768e-10, global = -5.83623e-20, cumulative = 1.43213e-17
ExecutionTime = 21.98 s  ClockTime = 26 s

Time = 2.48

Courant Number mean: 0.23086 max: 0.961856
smoothSolver:  Solving for Ux, Initial residual = 3.91437e-07, Final residual = 3.91437e-07, No Iterations 0
smoothSolver:  Solving for Uy, Initial residual = 4.72736e-07, Final residual = 4.72736e-07, No Iterations 0
DICPCG:  Solving for p, Initial residual = 1.27511e-06, Final residual = 7.80924e-07, No Iterations 1
time step continuity errors : sum local = 5.02711e-10, global = 1.8581e-19, cumulative = 1.45071e-17
DICPCG:  Solving for p, Initial residual = 9.95642e-07, Final residual = 9.95642e-07, No Iterations 0
time step continuity errors : sum local = 6.19701e-10, global = -1.58565e-19, cumulative = 1.43486e-17
ExecutionTime = 22 s  ClockTime = 26 s

Time = 2.48125

Courant Number mean: 0.23086 max: 0.961856
smoothSolver:  Solving for Ux, Initial residual = 3.90783e-07, Final residual = 3.90783e-07, No Iterations 0
smoothSolver:  Solving for Uy, Initial residual = 4.70822e-07, Final residual = 4.70822e-07, No Iterations 0
DICPCG:  Solving for p, Initial residual = 1.39101e-06, Final residual = 6.20871e-07, No Iterations 5
time step continuity errors : sum local = 4.14125e-10, global = -2.33644e-19, cumulative = 1.41149e-17
DICPCG:  Solving for p, Initial residual = 1.05421e-06, Final residual = 9.87452e-07, No Iterations 2
time step continuity errors : sum local = 6.15368e-10, global = 6.70646e-21, cumulative = 1.41216e-17
ExecutionTime = 22 s  ClockTime = 26 s

Time = 2.4825

Courant Number mean: 0.23086 max: 0.961856
smoothSolver:  Solving for Ux, Initial residual = 3.86571e-07, Final residual = 3.86571e-07, No Iterations 0
smoothSolver:  Solving for Uy, Initial residual = 4.78998e-07, Final residual = 4.78998e-07, No Iterations 0
DICPCG:  Solving for p, Initial residual = 2.03227e-06, Final residual = 8.19642e-07, No Iterations 5
time step continuity errors : sum local = 5.25476e-10, global = -2.43474e-19, cumulative = 1.38781e-17
DICPCG:  Solving for p, Initial residual = 1.31466e-06, Final residual = 8.36353e-07, No Iterations 2
time step continuity errors : sum local = 5.3486e-10, global = 8.31846e-20, cumulative = 1.39613e-17
ExecutionTime = 22 s  ClockTime = 26 s

Time = 2.48375

Courant Number mean: 0.23086 max: 0.961856
smoothSolver:  Solving for Ux, Initial residual = 3.84054e-07, Final residual = 3.84054e-07, No Iterations 0
smoothSolver:  Solving for Uy, Initial residual = 4.7596e-07, Final residual = 4.7596e-07, No Iterations 0
DICPCG:  Solving for p, Initial residual = 1.5289e-06, Final residual = 9.73258e-07, No Iterations 1
time step continuity errors : sum local = 6.09827e-10, global = -3.53894e-21, cumulative = 1.39578e-17
DICPCG:  Solving for p, Initial residual = 1.46165e-06, Final residual = 8.33626e-07, No Iterations 5
time step continuity errors : sum local = 5.31764e-10, global = 1.81689e-19, cumulative = 1.41395e-17
ExecutionTime = 22.01 s  ClockTime = 26 s

Time = 2.485

Courant Number mean: 0.230861 max: 0.961856
smoothSolver:  Solving for Ux, Initial residual = 3.83375e-07, Final residual = 3.83375e-07, No Iterations 0
smoothSolver:  Solving for Uy, Initial residual = 4.74602e-07, Final residual = 4.74602e-07, No Iterations 0
DICPCG:  Solving for p, Initial residual = 1.62412e-06, Final residual = 9.52986e-07, No Iterations 3
time step continuity errors : sum local = 5.95334e-10, global = -2.28159e-19, cumulative = 1.39113e-17
DICPCG:  Solving for p, Initial residual = 1.60372e-06, Final residual = 8.68257e-07, No Iterations 1
time step continuity errors : sum local = 5.48462e-10, global = 2.51783e-19, cumulative = 1.41631e-17
ExecutionTime = 22.01 s  ClockTime = 26 s

Time = 2.48625

Courant Number mean: 0.230861 max: 0.961856
smoothSolver:  Solving for Ux, Initial residual = 3.81631e-07, Final residual = 3.81631e-07, No Iterations 0
smoothSolver:  Solving for Uy, Initial residual = 4.73911e-07, Final residual = 4.73911e-07, No Iterations 0
DICPCG:  Solving for p, Initial residual = 1.54214e-06, Final residual = 8.34676e-07, No Iterations 1
time step continuity errors : sum local = 5.30206e-10, global = 9.79152e-20, cumulative = 1.4261e-17
DICPCG:  Solving for p, Initial residual = 1.15025e-06, Final residual = 9.85728e-07, No Iterations 1
time step continuity errors : sum local = 6.12483e-10, global = -4.89455e-20, cumulative = 1.42121e-17
ExecutionTime = 22.02 s  ClockTime = 26 s

Time = 2.4875

Courant Number mean: 0.230861 max: 0.961856
smoothSolver:  Solving for Ux, Initial residual = 3.80694e-07, Final residual = 3.80694e-07, No Iterations 0
smoothSolver:  Solving for Uy, Initial residual = 4.70909e-07, Final residual = 4.70909e-07, No Iterations 0
DICPCG:  Solving for p, Initial residual = 1.29745e-06, Final residual = 8.90391e-07, No Iterations 3
time step continuity errors : sum local = 5.61382e-10, global = 2.8331e-19, cumulative = 1.44954e-17
DICPCG:  Solving for p, Initial residual = 1.56898e-06, Final residual = 8.92577e-07, No Iterations 2
time step continuity errors : sum local = 5.63055e-10, global = -5.3859e-20, cumulative = 1.44415e-17
ExecutionTime = 22.02 s  ClockTime = 26 s

Time = 2.48875

Courant Number mean: 0.230861 max: 0.961856
smoothSolver:  Solving for Ux, Initial residual = 3.83735e-07, Final residual = 3.83735e-07, No Iterations 0
smoothSolver:  Solving for Uy, Initial residual = 4.67802e-07, Final residual = 4.67802e-07, No Iterations 0
DICPCG:  Solving for p, Initial residual = 1.88473e-06, Final residual = 8.20311e-07, No Iterations 2
time step continuity errors : sum local = 5.24222e-10, global = 1.41336e-19, cumulative = 1.45829e-17
DICPCG:  Solving for p, Initial residual = 1.51437e-06, Final residual = 9.633e-07, No Iterations 1
time step continuity errors : sum local = 6.02517e-10, global = 1.62766e-19, cumulative = 1.47456e-17
ExecutionTime = 22.02 s  ClockTime = 26 s

Time = 2.49

Courant Number mean: 0.230861 max: 0.961856
smoothSolver:  Solving for Ux, Initial residual = 3.82233e-07, Final residual = 3.82233e-07, No Iterations 0
smoothSolver:  Solving for Uy, Initial residual = 4.65406e-07, Final residual = 4.65406e-07, No Iterations 0
DICPCG:  Solving for p, Initial residual = 1.55394e-06, Final residual = 8.35952e-07, No Iterations 4
time step continuity errors : sum local = 5.34642e-10, global = 2.56253e-19, cumulative = 1.50019e-17
DICPCG:  Solving for p, Initial residual = 1.48771e-06, Final residual = 9.69346e-07, No Iterations 3
time step continuity errors : sum local = 6.0435e-10, global = 2.74574e-19, cumulative = 1.52765e-17
ExecutionTime = 22.03 s  ClockTime = 26 s

Time = 2.49125

Courant Number mean: 0.230861 max: 0.961856
smoothSolver:  Solving for Ux, Initial residual = 3.80184e-07, Final residual = 3.80184e-07, No Iterations 0
smoothSolver:  Solving for Uy, Initial residual = 4.65138e-07, Final residual = 4.65138e-07, No Iterations 0
DICPCG:  Solving for p, Initial residual = 1.76435e-06, Final residual = 9.45272e-07, No Iterations 2
time step continuity errors : sum local = 5.92373e-10, global = -1.3611e-19, cumulative = 1.51403e-17
DICPCG:  Solving for p, Initial residual = 1.6089e-06, Final residual = 9.46777e-07, No Iterations 4
time step continuity errors : sum local = 5.91513e-10, global = 6.73364e-20, cumulative = 1.52077e-17
ExecutionTime = 22.03 s  ClockTime = 26 s

Time = 2.4925

Courant Number mean: 0.230861 max: 0.961856
smoothSolver:  Solving for Ux, Initial residual = 3.80212e-07, Final residual = 3.80212e-07, No Iterations 0
smoothSolver:  Solving for Uy, Initial residual = 4.63164e-07, Final residual = 4.63164e-07, No Iterations 0
DICPCG:  Solving for p, Initial residual = 1.73019e-06, Final residual = 8.73484e-07, No Iterations 2
time step continuity errors : sum local = 5.54604e-10, global = 1.27128e-19, cumulative = 1.53348e-17
DICPCG:  Solving for p, Initial residual = 1.47258e-06, Final residual = 9.49203e-07, No Iterations 1
time step continuity errors : sum local = 5.95542e-10, global = 8.09467e-20, cumulative = 1.54158e-17
ExecutionTime = 22.03 s  ClockTime = 26 s

Time = 2.49375

Courant Number mean: 0.230861 max: 0.961856
smoothSolver:  Solving for Ux, Initial residual = 3.79797e-07, Final residual = 3.79797e-07, No Iterations 0
smoothSolver:  Solving for Uy, Initial residual = 4.60422e-07, Final residual = 4.60422e-07, No Iterations 0
DICPCG:  Solving for p, Initial residual = 1.54304e-06, Final residual = 5.71523e-07, No Iterations 5
time step continuity errors : sum local = 3.90055e-10, global = 1.23941e-19, cumulative = 1.55397e-17
DICPCG:  Solving for p, Initial residual = 9.9303e-07, Final residual = 9.9303e-07, No Iterations 0
time step continuity errors : sum local = 6.20106e-10, global = -7.62633e-20, cumulative = 1.54634e-17
ExecutionTime = 22.04 s  ClockTime = 26 s

Time = 2.495

Courant Number mean: 0.230861 max: 0.961856
smoothSolver:  Solving for Ux, Initial residual = 3.74257e-07, Final residual = 3.74257e-07, No Iterations 0
smoothSolver:  Solving for Uy, Initial residual = 4.64008e-07, Final residual = 4.64008e-07, No Iterations 0
DICPCG:  Solving for p, Initial residual = 1.68837e-06, Final residual = 9.50706e-07, No Iterations 5
time step continuity errors : sum local = 5.95702e-10, global = 1.14916e-19, cumulative = 1.55783e-17
DICPCG:  Solving for p, Initial residual = 1.52761e-06, Final residual = 6.32617e-07, No Iterations 3
time step continuity errors : sum local = 4.20739e-10, global = 6.35011e-20, cumulative = 1.56418e-17
ExecutionTime = 22.04 s  ClockTime = 26 s

Time = 2.49625

Courant Number mean: 0.230861 max: 0.961856
smoothSolver:  Solving for Ux, Initial residual = 3.74913e-07, Final residual = 3.74913e-07, No Iterations 0
smoothSolver:  Solving for Uy, Initial residual = 4.5949e-07, Final residual = 4.5949e-07, No Iterations 0
DICPCG:  Solving for p, Initial residual = 1.37613e-06, Final residual = 7.31847e-07, No Iterations 2
time step continuity errors : sum local = 4.75452e-10, global = -2.11695e-19, cumulative = 1.54302e-17
DICPCG:  Solving for p, Initial residual = 1.22614e-06, Final residual = 8.87699e-07, No Iterations 1
time step continuity errors : sum local = 5.60552e-10, global = -6.51511e-20, cumulative = 1.5365e-17
ExecutionTime = 22.04 s  ClockTime = 26 s

Time = 2.4975

Courant Number mean: 0.230861 max: 0.961856
smoothSolver:  Solving for Ux, Initial residual = 3.73894e-07, Final residual = 3.73894e-07, No Iterations 0
smoothSolver:  Solving for Uy, Initial residual = 4.57644e-07, Final residual = 4.57644e-07, No Iterations 0
DICPCG:  Solving for p, Initial residual = 1.33525e-06, Final residual = 8.43169e-07, No Iterations 1
time step continuity errors : sum local = 5.36445e-10, global = 1.01079e-19, cumulative = 1.54661e-17
DICPCG:  Solving for p, Initial residual = 1.08347e-06, Final residual = 9.27423e-07, No Iterations 3
time step continuity errors : sum local = 5.86738e-10, global = -2.22533e-19, cumulative = 1.52435e-17
ExecutionTime = 22.04 s  ClockTime = 26 s

Time = 2.49875

Courant Number mean: 0.230861 max: 0.961856
smoothSolver:  Solving for Ux, Initial residual = 3.72972e-07, Final residual = 3.72972e-07, No Iterations 0
smoothSolver:  Solving for Uy, Initial residual = 4.60634e-07, Final residual = 4.60634e-07, No Iterations 0
DICPCG:  Solving for p, Initial residual = 1.82272e-06, Final residual = 8.98575e-07, No Iterations 3
time step continuity errors : sum local = 5.70237e-10, global = -7.03915e-20, cumulative = 1.51732e-17
DICPCG:  Solving for p, Initial residual = 1.56386e-06, Final residual = 9.51465e-07, No Iterations 2
time step continuity errors : sum local = 5.99427e-10, global = -6.7111e-20, cumulative = 1.5106e-17
ExecutionTime = 22.05 s  ClockTime = 26 s

Time = 2.5

Courant Number mean: 0.230861 max: 0.961856
smoothSolver:  Solving for Ux, Initial residual = 3.71061e-07, Final residual = 3.71061e-07, No Iterations 0
smoothSolver:  Solving for Uy, Initial residual = 4.56326e-07, Final residual = 4.56326e-07, No Iterations 0
DICPCG:  Solving for p, Initial residual = 1.76164e-06, Final residual = 7.70315e-07, No Iterations 4
time step continuity errors : sum local = 4.98089e-10, global = 5.29313e-20, cumulative = 1.5159e-17
DICPCG:  Solving for p, Initial residual = 1.2656e-06, Final residual = 5.20296e-07, No Iterations 2
time step continuity errors : sum local = 3.59772e-10, global = -2.41578e-19, cumulative = 1.49174e-17
ExecutionTime = 22.07 s  ClockTime = 26 s

End

