/*---------------------------------------------------------------------------*\
  =========                 |
  \\      /  F ield         | OpenFOAM: The Open Source CFD Toolbox
   \\    /   O peration     | Website:  https://openfoam.org
    \\  /    A nd           | Version:  7
     \\/     M anipulation  |
\*---------------------------------------------------------------------------*/
Build  : 7
Exec   : icoFoam
Date   : Feb 10 2025
Time   : 16:02:44
Host   : "c202-032.frontera.tacc.utexas.edu"
PID    : 185838
I/O    : uncollated
Case   : /work2/10531/andressuniaga/frontera/COE-347-SP25/run/cavity
nProcs : 1
sigFpe : Enabling floating point exception trapping (FOAM_SIGFPE).
fileModificationChecking : Monitoring run-time modified files using timeStampMaster (fileModificationSkew 10)
allowSystemOperations : Allowing user-supplied system call operations

// * * * * * * * * * * * * * * * * * * * * * * * * * * * * * * * * * * * * * //
Create time

Create mesh for time = 0

Reading transportProperties

Reading field p

Reading field U

Reading/calculating face flux field phi


Starting time loop

Time = 0.00125

Courant Number mean: 0 max: 0
smoothSolver:  Solving for Ux, Initial residual = 1, Final residual = 7.27406e-06, No Iterations 17
smoothSolver:  Solving for Uy, Initial residual = 0, Final residual = 0, No Iterations 0
DICPCG:  Solving for p, Initial residual = 1, Final residual = 0.0417067, No Iterations 96
time step continuity errors : sum local = 1.53349e-05, global = -7.15511e-21, cumulative = -7.15511e-21
DICPCG:  Solving for p, Initial residual = 0.518037, Final residual = 7.44502e-07, No Iterations 139
time step continuity errors : sum local = 4.85413e-10, global = -1.41617e-20, cumulative = -2.13168e-20
ExecutionTime = 0.07 s  ClockTime = 1 s

Time = 0.0025

Courant Number mean: 0.0316315 max: 0.614925
smoothSolver:  Solving for Ux, Initial residual = 0.189178, Final residual = 7.1418e-06, No Iterations 17
smoothSolver:  Solving for Uy, Initial residual = 0.306528, Final residual = 6.74598e-06, No Iterations 19
DICPCG:  Solving for p, Initial residual = 0.384097, Final residual = 0.0170954, No Iterations 94
time step continuity errors : sum local = 1.01327e-05, global = -2.60665e-20, cumulative = -4.73833e-20
DICPCG:  Solving for p, Initial residual = 0.29596, Final residual = 7.30874e-07, No Iterations 133
time step continuity errors : sum local = 4.60592e-10, global = 1.7363e-20, cumulative = -3.00203e-20
ExecutionTime = 0.1 s  ClockTime = 1 s

Time = 0.00375

Courant Number mean: 0.0489636 max: 0.779037
smoothSolver:  Solving for Ux, Initial residual = 0.0801185, Final residual = 5.82466e-06, No Iterations 16
smoothSolver:  Solving for Uy, Initial residual = 0.130682, Final residual = 9.45407e-06, No Iterations 17
DICPCG:  Solving for p, Initial residual = 0.155281, Final residual = 0.00716551, No Iterations 47
time step continuity errors : sum local = 4.58312e-06, global = -3.35525e-21, cumulative = -3.33755e-20
DICPCG:  Solving for p, Initial residual = 0.124453, Final residual = 8.78681e-07, No Iterations 132
time step continuity errors : sum local = 4.68481e-10, global = 4.29009e-20, cumulative = 9.52542e-21
ExecutionTime = 0.13 s  ClockTime = 1 s

Time = 0.005

Courant Number mean: 0.0604671 max: 0.834762
smoothSolver:  Solving for Ux, Initial residual = 0.0491273, Final residual = 6.92435e-06, No Iterations 15
smoothSolver:  Solving for Uy, Initial residual = 0.0841164, Final residual = 6.25485e-06, No Iterations 17
DICPCG:  Solving for p, Initial residual = 0.0869169, Final residual = 0.00412051, No Iterations 92
time step continuity errors : sum local = 2.115e-06, global = -1.16515e-19, cumulative = -1.0699e-19
DICPCG:  Solving for p, Initial residual = 0.0675846, Final residual = 7.67345e-07, No Iterations 129
time step continuity errors : sum local = 4.09853e-10, global = -3.68392e-20, cumulative = -1.43829e-19
ExecutionTime = 0.16 s  ClockTime = 1 s

Time = 0.00625

Courant Number mean: 0.0693413 max: 0.861394
smoothSolver:  Solving for Ux, Initial residual = 0.0364298, Final residual = 5.66942e-06, No Iterations 15
smoothSolver:  Solving for Uy, Initial residual = 0.0587557, Final residual = 7.85542e-06, No Iterations 16
DICPCG:  Solving for p, Initial residual = 0.0545984, Final residual = 0.00222303, No Iterations 93
time step continuity errors : sum local = 1.13989e-06, global = 1.17018e-19, cumulative = -2.68109e-20
DICPCG:  Solving for p, Initial residual = 0.0435062, Final residual = 6.92084e-07, No Iterations 129
time step continuity errors : sum local = 3.56097e-10, global = -1.25801e-20, cumulative = -3.9391e-20
ExecutionTime = 0.19 s  ClockTime = 1 s

Time = 0.0075

Courant Number mean: 0.0767207 max: 0.877434
smoothSolver:  Solving for Ux, Initial residual = 0.0287704, Final residual = 8.39191e-06, No Iterations 14
smoothSolver:  Solving for Uy, Initial residual = 0.0459352, Final residual = 6.27583e-06, No Iterations 16
DICPCG:  Solving for p, Initial residual = 0.0407291, Final residual = 0.00158832, No Iterations 47
time step continuity errors : sum local = 9.99565e-07, global = -1.12064e-19, cumulative = -1.51455e-19
DICPCG:  Solving for p, Initial residual = 0.0328179, Final residual = 9.33919e-07, No Iterations 127
time step continuity errors : sum local = 4.83981e-10, global = -3.17274e-20, cumulative = -1.83182e-19
ExecutionTime = 0.21 s  ClockTime = 1 s

Time = 0.00875

Courant Number mean: 0.0830259 max: 0.888449
smoothSolver:  Solving for Ux, Initial residual = 0.0236869, Final residual = 7.19654e-06, No Iterations 14
smoothSolver:  Solving for Uy, Initial residual = 0.0381301, Final residual = 9.18221e-06, No Iterations 15
DICPCG:  Solving for p, Initial residual = 0.0354163, Final residual = 0.00171901, No Iterations 91
time step continuity errors : sum local = 8.94045e-07, global = 1.1894e-19, cumulative = -6.42422e-20
DICPCG:  Solving for p, Initial residual = 0.0284133, Final residual = 9.85528e-07, No Iterations 125
time step continuity errors : sum local = 5.15797e-10, global = 1.34288e-20, cumulative = -5.08134e-20
ExecutionTime = 0.24 s  ClockTime = 1 s

Time = 0.01

Courant Number mean: 0.0886143 max: 0.896621
smoothSolver:  Solving for Ux, Initial residual = 0.0203231, Final residual = 6.43936e-06, No Iterations 14
smoothSolver:  Solving for Uy, Initial residual = 0.0318998, Final residual = 7.78159e-06, No Iterations 15
DICPCG:  Solving for p, Initial residual = 0.0287759, Final residual = 0.00137419, No Iterations 46
time step continuity errors : sum local = 8.56767e-07, global = -1.23237e-20, cumulative = -6.31371e-20
DICPCG:  Solving for p, Initial residual = 0.0232228, Final residual = 8.74786e-07, No Iterations 119
time step continuity errors : sum local = 4.57436e-10, global = -1.58099e-19, cumulative = -2.21236e-19
ExecutionTime = 0.27 s  ClockTime = 1 s

Time = 0.01125

Courant Number mean: 0.093606 max: 0.903002
smoothSolver:  Solving for Ux, Initial residual = 0.0175889, Final residual = 5.72169e-06, No Iterations 14
smoothSolver:  Solving for Uy, Initial residual = 0.0279581, Final residual = 6.86965e-06, No Iterations 15
DICPCG:  Solving for p, Initial residual = 0.0265268, Final residual = 0.00119877, No Iterations 90
time step continuity errors : sum local = 6.29007e-07, global = 2.54565e-20, cumulative = -1.95779e-19
DICPCG:  Solving for p, Initial residual = 0.021373, Final residual = 9.5858e-07, No Iterations 124
time step continuity errors : sum local = 5.04795e-10, global = -6.78133e-20, cumulative = -2.63593e-19
ExecutionTime = 0.29 s  ClockTime = 1 s

Time = 0.0125

Courant Number mean: 0.0981221 max: 0.908166
smoothSolver:  Solving for Ux, Initial residual = 0.0156547, Final residual = 9.23762e-06, No Iterations 13
smoothSolver:  Solving for Uy, Initial residual = 0.0243592, Final residual = 6.03974e-06, No Iterations 15
DICPCG:  Solving for p, Initial residual = 0.0221683, Final residual = 0.00109767, No Iterations 45
time step continuity errors : sum local = 6.77754e-07, global = -1.51738e-19, cumulative = -4.15331e-19
DICPCG:  Solving for p, Initial residual = 0.0180951, Final residual = 7.76498e-07, No Iterations 124
time step continuity errors : sum local = 4.08035e-10, global = -9.83597e-20, cumulative = -5.13691e-19
ExecutionTime = 0.32 s  ClockTime = 1 s

Time = 0.01375

Courant Number mean: 0.102285 max: 0.91245
smoothSolver:  Solving for Ux, Initial residual = 0.0139467, Final residual = 8.37693e-06, No Iterations 13
smoothSolver:  Solving for Uy, Initial residual = 0.0219658, Final residual = 9.51021e-06, No Iterations 14
DICPCG:  Solving for p, Initial residual = 0.0210972, Final residual = 0.000931065, No Iterations 89
time step continuity errors : sum local = 4.90816e-07, global = -1.68147e-20, cumulative = -5.30505e-19
DICPCG:  Solving for p, Initial residual = 0.0170841, Final residual = 9.18234e-07, No Iterations 118
time step continuity errors : sum local = 4.85997e-10, global = 4.37658e-20, cumulative = -4.86739e-19
ExecutionTime = 0.35 s  ClockTime = 1 s

Time = 0.015

Courant Number mean: 0.10612 max: 0.916079
smoothSolver:  Solving for Ux, Initial residual = 0.0126794, Final residual = 7.78394e-06, No Iterations 13
smoothSolver:  Solving for Uy, Initial residual = 0.0196465, Final residual = 8.55966e-06, No Iterations 14
DICPCG:  Solving for p, Initial residual = 0.0180077, Final residual = 0.000888067, No Iterations 45
time step continuity errors : sum local = 5.47591e-07, global = 7.96808e-22, cumulative = -4.85943e-19
DICPCG:  Solving for p, Initial residual = 0.0147056, Final residual = 8.67747e-07, No Iterations 123
time step continuity errors : sum local = 4.58568e-10, global = -2.89546e-20, cumulative = -5.14897e-19
ExecutionTime = 0.37 s  ClockTime = 1 s

Time = 0.01625

Courant Number mean: 0.109662 max: 0.919208
smoothSolver:  Solving for Ux, Initial residual = 0.0115059, Final residual = 7.15693e-06, No Iterations 13
smoothSolver:  Solving for Uy, Initial residual = 0.0180429, Final residual = 7.88315e-06, No Iterations 14
DICPCG:  Solving for p, Initial residual = 0.0174653, Final residual = 0.000849363, No Iterations 88
time step continuity errors : sum local = 4.48885e-07, global = -1.2506e-19, cumulative = -6.39957e-19
DICPCG:  Solving for p, Initial residual = 0.0141804, Final residual = 9.9508e-07, No Iterations 117
time step continuity errors : sum local = 5.30104e-10, global = 5.19759e-21, cumulative = -6.3476e-19
ExecutionTime = 0.4 s  ClockTime = 1 s

Time = 0.0175

Courant Number mean: 0.112991 max: 0.921938
smoothSolver:  Solving for Ux, Initial residual = 0.0106128, Final residual = 6.71431e-06, No Iterations 13
smoothSolver:  Solving for Uy, Initial residual = 0.0164232, Final residual = 7.20936e-06, No Iterations 14
DICPCG:  Solving for p, Initial residual = 0.0150843, Final residual = 0.000669156, No Iterations 46
time step continuity errors : sum local = 4.20098e-07, global = -6.893e-20, cumulative = -7.0369e-19
DICPCG:  Solving for p, Initial residual = 0.0123259, Final residual = 8.4991e-07, No Iterations 122
time step continuity errors : sum local = 4.51201e-10, global = -5.26225e-21, cumulative = -7.08952e-19
ExecutionTime = 0.42 s  ClockTime = 1 s

Time = 0.01875

Courant Number mean: 0.116119 max: 0.924349
smoothSolver:  Solving for Ux, Initial residual = 0.00975836, Final residual = 6.23754e-06, No Iterations 13
smoothSolver:  Solving for Uy, Initial residual = 0.0152755, Final residual = 6.71786e-06, No Iterations 14
DICPCG:  Solving for p, Initial residual = 0.0148459, Final residual = 0.000719285, No Iterations 88
time step continuity errors : sum local = 3.81578e-07, global = -2.49311e-20, cumulative = -7.33883e-19
DICPCG:  Solving for p, Initial residual = 0.0120833, Final residual = 7.59056e-07, No Iterations 122
time step continuity errors : sum local = 4.04592e-10, global = 4.97278e-20, cumulative = -6.84155e-19
ExecutionTime = 0.46 s  ClockTime = 1 s

Time = 0.02

Courant Number mean: 0.11906 max: 0.926492
smoothSolver:  Solving for Ux, Initial residual = 0.00909138, Final residual = 5.89146e-06, No Iterations 13
smoothSolver:  Solving for Uy, Initial residual = 0.0140762, Final residual = 6.21299e-06, No Iterations 14
DICPCG:  Solving for p, Initial residual = 0.0129284, Final residual = 0.000574134, No Iterations 46
time step continuity errors : sum local = 3.61097e-07, global = -1.64589e-19, cumulative = -8.48744e-19
DICPCG:  Solving for p, Initial residual = 0.0106402, Final residual = 7.4025e-07, No Iterations 121
time step continuity errors : sum local = 3.94126e-10, global = -1.15844e-19, cumulative = -9.64588e-19
ExecutionTime = 0.48 s  ClockTime = 1 s

Time = 0.02125

Courant Number mean: 0.121828 max: 0.928421
smoothSolver:  Solving for Ux, Initial residual = 0.00844318, Final residual = 9.66696e-06, No Iterations 12
smoothSolver:  Solving for Uy, Initial residual = 0.013217, Final residual = 5.84124e-06, No Iterations 14
DICPCG:  Solving for p, Initial residual = 0.0129973, Final residual = 0.000574852, No Iterations 89
time step continuity errors : sum local = 3.06266e-07, global = -2.25032e-20, cumulative = -9.87092e-19
DICPCG:  Solving for p, Initial residual = 0.010612, Final residual = 7.94218e-07, No Iterations 121
time step continuity errors : sum local = 4.25201e-10, global = 4.66147e-20, cumulative = -9.40477e-19
ExecutionTime = 0.51 s  ClockTime = 1 s

Time = 0.0225

Courant Number mean: 0.124457 max: 0.930164
smoothSolver:  Solving for Ux, Initial residual = 0.00792701, Final residual = 9.17938e-06, No Iterations 12
smoothSolver:  Solving for Uy, Initial residual = 0.0122906, Final residual = 9.45618e-06, No Iterations 13
DICPCG:  Solving for p, Initial residual = 0.0113466, Final residual = 0.000504811, No Iterations 46
time step continuity errors : sum local = 3.16295e-07, global = -5.69472e-20, cumulative = -9.97424e-19
DICPCG:  Solving for p, Initial residual = 0.00939543, Final residual = 9.97197e-07, No Iterations 114
time step continuity errors : sum local = 5.34059e-10, global = -6.49389e-20, cumulative = -1.06236e-18
ExecutionTime = 0.53 s  ClockTime = 1 s

Time = 0.02375

Courant Number mean: 0.126965 max: 0.931753
smoothSolver:  Solving for Ux, Initial residual = 0.00742078, Final residual = 8.6428e-06, No Iterations 12
smoothSolver:  Solving for Uy, Initial residual = 0.0116234, Final residual = 8.95083e-06, No Iterations 13
DICPCG:  Solving for p, Initial residual = 0.0115303, Final residual = 0.000555661, No Iterations 89
time step continuity errors : sum local = 2.96833e-07, global = -1.64662e-19, cumulative = -1.22702e-18
DICPCG:  Solving for p, Initial residual = 0.00944479, Final residual = 8.63798e-07, No Iterations 120
time step continuity errors : sum local = 4.63449e-10, global = 2.70713e-20, cumulative = -1.19995e-18
ExecutionTime = 0.56 s  ClockTime = 1 s

Time = 0.025

Courant Number mean: 0.129355 max: 0.933203
smoothSolver:  Solving for Ux, Initial residual = 0.00700716, Final residual = 8.23908e-06, No Iterations 12
smoothSolver:  Solving for Uy, Initial residual = 0.010888, Final residual = 8.40169e-06, No Iterations 13
DICPCG:  Solving for p, Initial residual = 0.0101779, Final residual = 0.000500805, No Iterations 45
time step continuity errors : sum local = 3.08455e-07, global = 4.29743e-20, cumulative = -1.15698e-18
DICPCG:  Solving for p, Initial residual = 0.00846208, Final residual = 7.61374e-07, No Iterations 120
time step continuity errors : sum local = 4.07716e-10, global = -2.42205e-19, cumulative = -1.39918e-18
ExecutionTime = 0.6 s  ClockTime = 1 s

Time = 0.02625

Courant Number mean: 0.13163 max: 0.934538
smoothSolver:  Solving for Ux, Initial residual = 0.00659756, Final residual = 7.79421e-06, No Iterations 12
smoothSolver:  Solving for Uy, Initial residual = 0.0103559, Final residual = 7.99661e-06, No Iterations 13
DICPCG:  Solving for p, Initial residual = 0.0104302, Final residual = 0.00046247, No Iterations 91
time step continuity errors : sum local = 2.47775e-07, global = 7.52603e-20, cumulative = -1.32392e-18
DICPCG:  Solving for p, Initial residual = 0.00860761, Final residual = 6.76653e-07, No Iterations 120
time step continuity errors : sum local = 3.63702e-10, global = -1.26749e-19, cumulative = -1.45067e-18
ExecutionTime = 0.63 s  ClockTime = 1 s

Time = 0.0275

Courant Number mean: 0.133801 max: 0.935767
smoothSolver:  Solving for Ux, Initial residual = 0.00626394, Final residual = 7.46215e-06, No Iterations 12
smoothSolver:  Solving for Uy, Initial residual = 0.00975595, Final residual = 7.54609e-06, No Iterations 13
DICPCG:  Solving for p, Initial residual = 0.00920061, Final residual = 0.000389853, No Iterations 46
time step continuity errors : sum local = 2.4376e-07, global = -2.71325e-20, cumulative = -1.47781e-18
DICPCG:  Solving for p, Initial residual = 0.0076842, Final residual = 7.0135e-07, No Iterations 120
time step continuity errors : sum local = 3.76885e-10, global = 2.15673e-20, cumulative = -1.45624e-18
ExecutionTime = 0.65 s  ClockTime = 1 s

Time = 0.02875

Courant Number mean: 0.135879 max: 0.936908
smoothSolver:  Solving for Ux, Initial residual = 0.00592634, Final residual = 7.08776e-06, No Iterations 12
smoothSolver:  Solving for Uy, Initial residual = 0.00931765, Final residual = 7.21072e-06, No Iterations 13
DICPCG:  Solving for p, Initial residual = 0.00938747, Final residual = 0.000435911, No Iterations 91
time step continuity errors : sum local = 2.33984e-07, global = 6.76737e-21, cumulative = -1.44947e-18
DICPCG:  Solving for p, Initial residual = 0.00775605, Final residual = 9.37834e-07, No Iterations 119
time step continuity errors : sum local = 5.04873e-10, global = 1.43798e-20, cumulative = -1.43509e-18
ExecutionTime = 0.68 s  ClockTime = 1 s

Time = 0.03

Courant Number mean: 0.137884 max: 0.937968
smoothSolver:  Solving for Ux, Initial residual = 0.0056486, Final residual = 6.80413e-06, No Iterations 12
smoothSolver:  Solving for Uy, Initial residual = 0.00882249, Final residual = 6.83655e-06, No Iterations 13
DICPCG:  Solving for p, Initial residual = 0.00841989, Final residual = 0.000419392, No Iterations 45
time step continuity errors : sum local = 2.55812e-07, global = 3.44333e-20, cumulative = -1.40066e-18
DICPCG:  Solving for p, Initial residual = 0.00706172, Final residual = 9.56156e-07, No Iterations 119
time step continuity errors : sum local = 5.1461e-10, global = 1.19395e-19, cumulative = -1.28126e-18
ExecutionTime = 0.7 s  ClockTime = 1 s

Time = 0.03125

Courant Number mean: 0.139813 max: 0.938961
smoothSolver:  Solving for Ux, Initial residual = 0.00536607, Final residual = 6.48487e-06, No Iterations 12
smoothSolver:  Solving for Uy, Initial residual = 0.00845807, Final residual = 6.55643e-06, No Iterations 13
DICPCG:  Solving for p, Initial residual = 0.00862457, Final residual = 0.000430216, No Iterations 47
time step continuity errors : sum local = 2.91798e-07, global = -8.0568e-20, cumulative = -1.36183e-18
DICPCG:  Solving for p, Initial residual = 0.00708908, Final residual = 8.95825e-07, No Iterations 119
time step continuity errors : sum local = 4.82822e-10, global = -1.24049e-19, cumulative = -1.48588e-18
ExecutionTime = 0.72 s  ClockTime = 1 s

Time = 0.0325

Courant Number mean: 0.141669 max: 0.939886
smoothSolver:  Solving for Ux, Initial residual = 0.00518986, Final residual = 6.31215e-06, No Iterations 12
smoothSolver:  Solving for Uy, Initial residual = 0.00799696, Final residual = 6.1883e-06, No Iterations 13
DICPCG:  Solving for p, Initial residual = 0.00850862, Final residual = 0.000410191, No Iterations 89
time step continuity errors : sum local = 2.21481e-07, global = -8.30412e-21, cumulative = -1.49418e-18
DICPCG:  Solving for p, Initial residual = 0.00706834, Final residual = 9.18677e-07, No Iterations 116
time step continuity errors : sum local = 4.9747e-10, global = 8.47276e-20, cumulative = -1.40946e-18
ExecutionTime = 0.75 s  ClockTime = 1 s

Time = 0.03375

Courant Number mean: 0.143452 max: 0.940756
smoothSolver:  Solving for Ux, Initial residual = 0.00490409, Final residual = 5.98959e-06, No Iterations 12
smoothSolver:  Solving for Uy, Initial residual = 0.0076989, Final residual = 5.98083e-06, No Iterations 13
DICPCG:  Solving for p, Initial residual = 0.00748427, Final residual = 0.000354073, No Iterations 44
time step continuity errors : sum local = 1.95104e-07, global = 6.21193e-20, cumulative = -1.34734e-18
DICPCG:  Solving for p, Initial residual = 0.00628457, Final residual = 9.02694e-07, No Iterations 119
time step continuity errors : sum local = 4.87341e-10, global = 7.75424e-20, cumulative = -1.26979e-18
ExecutionTime = 0.77 s  ClockTime = 1 s

Time = 0.035

Courant Number mean: 0.14517 max: 0.941573
smoothSolver:  Solving for Ux, Initial residual = 0.0046864, Final residual = 5.74587e-06, No Iterations 12
smoothSolver:  Solving for Uy, Initial residual = 0.00737785, Final residual = 9.94993e-06, No Iterations 12
DICPCG:  Solving for p, Initial residual = 0.00737787, Final residual = 0.000332573, No Iterations 44
time step continuity errors : sum local = 1.80432e-07, global = -8.57722e-20, cumulative = -1.35557e-18
DICPCG:  Solving for p, Initial residual = 0.00629049, Final residual = 9.02144e-07, No Iterations 119
time step continuity errors : sum local = 4.87483e-10, global = -7.9185e-21, cumulative = -1.36349e-18
ExecutionTime = 0.8 s  ClockTime = 1 s

Time = 0.03625

Courant Number mean: 0.146824 max: 0.94234
smoothSolver:  Solving for Ux, Initial residual = 0.00449307, Final residual = 9.65603e-06, No Iterations 11
smoothSolver:  Solving for Uy, Initial residual = 0.00707576, Final residual = 9.54583e-06, No Iterations 12
DICPCG:  Solving for p, Initial residual = 0.00696438, Final residual = 0.000321764, No Iterations 44
time step continuity errors : sum local = 1.8268e-07, global = -5.63633e-20, cumulative = -1.41985e-18
DICPCG:  Solving for p, Initial residual = 0.00596475, Final residual = 8.94032e-07, No Iterations 119
time step continuity errors : sum local = 4.83554e-10, global = -1.92002e-20, cumulative = -1.43905e-18
ExecutionTime = 0.82 s  ClockTime = 2 s

Time = 0.0375

Courant Number mean: 0.148424 max: 0.943065
smoothSolver:  Solving for Ux, Initial residual = 0.00430778, Final residual = 9.28729e-06, No Iterations 11
smoothSolver:  Solving for Uy, Initial residual = 0.00680841, Final residual = 9.18756e-06, No Iterations 12
DICPCG:  Solving for p, Initial residual = 0.0068273, Final residual = 0.000313391, No Iterations 44
time step continuity errors : sum local = 1.82196e-07, global = 6.60142e-20, cumulative = -1.37303e-18
DICPCG:  Solving for p, Initial residual = 0.00580479, Final residual = 8.97029e-07, No Iterations 119
time step continuity errors : sum local = 4.85598e-10, global = 1.98332e-19, cumulative = -1.1747e-18
ExecutionTime = 0.84 s  ClockTime = 2 s

Time = 0.03875

Courant Number mean: 0.149977 max: 0.943751
smoothSolver:  Solving for Ux, Initial residual = 0.00415038, Final residual = 8.98469e-06, No Iterations 11
smoothSolver:  Solving for Uy, Initial residual = 0.00653002, Final residual = 8.80845e-06, No Iterations 12
DICPCG:  Solving for p, Initial residual = 0.00657394, Final residual = 0.000261127, No Iterations 91
time step continuity errors : sum local = 1.41587e-07, global = 5.68945e-20, cumulative = -1.11781e-18
DICPCG:  Solving for p, Initial residual = 0.0054896, Final residual = 9.21833e-07, No Iterations 119
time step continuity errors : sum local = 4.98751e-10, global = 1.94387e-19, cumulative = -9.23421e-19
ExecutionTime = 0.87 s  ClockTime = 2 s

Time = 0.04

Courant Number mean: 0.151482 max: 0.9444
smoothSolver:  Solving for Ux, Initial residual = 0.00398621, Final residual = 8.65229e-06, No Iterations 11
smoothSolver:  Solving for Uy, Initial residual = 0.00629448, Final residual = 8.5002e-06, No Iterations 12
DICPCG:  Solving for p, Initial residual = 0.00614607, Final residual = 0.000291642, No Iterations 44
time step continuity errors : sum local = 1.6959e-07, global = -1.67523e-19, cumulative = -1.09094e-18
DICPCG:  Solving for p, Initial residual = 0.00520175, Final residual = 8.96033e-07, No Iterations 119
time step continuity errors : sum local = 4.85504e-10, global = 1.12695e-19, cumulative = -9.78249e-19
ExecutionTime = 0.89 s  ClockTime = 2 s

Time = 0.04125

Courant Number mean: 0.152942 max: 0.945017
smoothSolver:  Solving for Ux, Initial residual = 0.00382995, Final residual = 8.32929e-06, No Iterations 11
smoothSolver:  Solving for Uy, Initial residual = 0.00608477, Final residual = 8.21738e-06, No Iterations 12
DICPCG:  Solving for p, Initial residual = 0.00628399, Final residual = 0.000299875, No Iterations 44
time step continuity errors : sum local = 1.84934e-07, global = 1.24572e-19, cumulative = -8.53677e-19
DICPCG:  Solving for p, Initial residual = 0.00534072, Final residual = 8.74287e-07, No Iterations 119
time step continuity errors : sum local = 4.74229e-10, global = -1.58195e-19, cumulative = -1.01187e-18
ExecutionTime = 0.92 s  ClockTime = 2 s

Time = 0.0425

Courant Number mean: 0.154355 max: 0.945601
smoothSolver:  Solving for Ux, Initial residual = 0.00371267, Final residual = 8.10389e-06, No Iterations 11
smoothSolver:  Solving for Uy, Initial residual = 0.00584159, Final residual = 7.88131e-06, No Iterations 12
DICPCG:  Solving for p, Initial residual = 0.00605904, Final residual = 0.000233905, No Iterations 91
time step continuity errors : sum local = 1.26966e-07, global = 7.58938e-20, cumulative = -9.35978e-19
DICPCG:  Solving for p, Initial residual = 0.0050729, Final residual = 8.91787e-07, No Iterations 119
time step continuity errors : sum local = 4.83389e-10, global = -5.16755e-20, cumulative = -9.87654e-19
ExecutionTime = 0.95 s  ClockTime = 2 s

Time = 0.04375

Courant Number mean: 0.155724 max: 0.946157
smoothSolver:  Solving for Ux, Initial residual = 0.00356635, Final residual = 7.80558e-06, No Iterations 11
smoothSolver:  Solving for Uy, Initial residual = 0.00565314, Final residual = 7.64032e-06, No Iterations 12
DICPCG:  Solving for p, Initial residual = 0.00559877, Final residual = 0.000254537, No Iterations 44
time step continuity errors : sum local = 1.46218e-07, global = 3.04215e-21, cumulative = -9.84611e-19
DICPCG:  Solving for p, Initial residual = 0.00474294, Final residual = 8.55164e-07, No Iterations 119
time step continuity errors : sum local = 4.64144e-10, global = -6.25724e-20, cumulative = -1.04718e-18
ExecutionTime = 0.97 s  ClockTime = 2 s

Time = 0.045

Courant Number mean: 0.157051 max: 0.946688
smoothSolver:  Solving for Ux, Initial residual = 0.00343656, Final residual = 7.53586e-06, No Iterations 11
smoothSolver:  Solving for Uy, Initial residual = 0.00547517, Final residual = 7.40063e-06, No Iterations 12
DICPCG:  Solving for p, Initial residual = 0.00568148, Final residual = 0.000254207, No Iterations 44
time step continuity errors : sum local = 1.52897e-07, global = 4.69112e-20, cumulative = -1.00027e-18
DICPCG:  Solving for p, Initial residual = 0.00483637, Final residual = 8.32401e-07, No Iterations 119
time step continuity errors : sum local = 4.52219e-10, global = 4.79798e-20, cumulative = -9.52293e-19
ExecutionTime = 1 s  ClockTime = 2 s

Time = 0.04625

Courant Number mean: 0.158338 max: 0.947193
smoothSolver:  Solving for Ux, Initial residual = 0.00333449, Final residual = 7.33343e-06, No Iterations 11
smoothSolver:  Solving for Uy, Initial residual = 0.00527632, Final residual = 7.12628e-06, No Iterations 12
DICPCG:  Solving for p, Initial residual = 0.00545828, Final residual = 0.000208528, No Iterations 91
time step continuity errors : sum local = 1.13444e-07, global = -9.82723e-20, cumulative = -1.05057e-18
DICPCG:  Solving for p, Initial residual = 0.00457028, Final residual = 8.55154e-07, No Iterations 119
time step continuity errors : sum local = 4.6426e-10, global = -5.73296e-20, cumulative = -1.10789e-18
ExecutionTime = 1.02 s  ClockTime = 2 s

Time = 0.0475

Courant Number mean: 0.159587 max: 0.947675
smoothSolver:  Solving for Ux, Initial residual = 0.0032166, Final residual = 7.08828e-06, No Iterations 11
smoothSolver:  Solving for Uy, Initial residual = 0.00511409, Final residual = 6.91566e-06, No Iterations 12
DICPCG:  Solving for p, Initial residual = 0.00510615, Final residual = 0.00022948, No Iterations 44
time step continuity errors : sum local = 1.33101e-07, global = -1.02167e-19, cumulative = -1.21006e-18
DICPCG:  Solving for p, Initial residual = 0.00432858, Final residual = 8.03012e-07, No Iterations 119
time step continuity errors : sum local = 4.3651e-10, global = 1.74201e-19, cumulative = -1.03586e-18
ExecutionTime = 1.04 s  ClockTime = 2 s

Time = 0.04875

Courant Number mean: 0.160806 max: 0.948137
smoothSolver:  Solving for Ux, Initial residual = 0.0031064, Final residual = 6.85701e-06, No Iterations 11
smoothSolver:  Solving for Uy, Initial residual = 0.0049657, Final residual = 6.71495e-06, No Iterations 12
DICPCG:  Solving for p, Initial residual = 0.00521669, Final residual = 0.00023808, No Iterations 44
time step continuity errors : sum local = 1.45913e-07, global = 1.37132e-19, cumulative = -8.98729e-19
DICPCG:  Solving for p, Initial residual = 0.00444384, Final residual = 7.83986e-07, No Iterations 119
time step continuity errors : sum local = 4.26487e-10, global = 1.44883e-19, cumulative = -7.53846e-19
ExecutionTime = 1.07 s  ClockTime = 2 s

Time = 0.05

Courant Number mean: 0.161995 max: 0.948577
smoothSolver:  Solving for Ux, Initial residual = 0.00302291, Final residual = 6.69229e-06, No Iterations 11
smoothSolver:  Solving for Uy, Initial residual = 0.00479275, Final residual = 6.47497e-06, No Iterations 12
DICPCG:  Solving for p, Initial residual = 0.00504535, Final residual = 0.000246519, No Iterations 90
time step continuity errors : sum local = 1.34195e-07, global = 7.87573e-20, cumulative = -6.75088e-19
DICPCG:  Solving for p, Initial residual = 0.0042277, Final residual = 7.98647e-07, No Iterations 119
time step continuity errors : sum local = 4.34303e-10, global = -4.66982e-20, cumulative = -7.21786e-19
ExecutionTime = 1.11 s  ClockTime = 2 s

Time = 0.05125

Courant Number mean: 0.163153 max: 0.949
smoothSolver:  Solving for Ux, Initial residual = 0.00291995, Final residual = 6.47615e-06, No Iterations 11
smoothSolver:  Solving for Uy, Initial residual = 0.00465621, Final residual = 6.29908e-06, No Iterations 12
DICPCG:  Solving for p, Initial residual = 0.00472933, Final residual = 0.000205931, No Iterations 44
time step continuity errors : sum local = 1.18788e-07, global = -1.86665e-20, cumulative = -7.40453e-19
DICPCG:  Solving for p, Initial residual = 0.00400038, Final residual = 9.65882e-07, No Iterations 118
time step continuity errors : sum local = 5.25478e-10, global = 1.55987e-19, cumulative = -5.84466e-19
ExecutionTime = 1.13 s  ClockTime = 2 s

Time = 0.0525

Courant Number mean: 0.164282 max: 0.949405
smoothSolver:  Solving for Ux, Initial residual = 0.00282654, Final residual = 6.27612e-06, No Iterations 11
smoothSolver:  Solving for Uy, Initial residual = 0.00452746, Final residual = 6.12525e-06, No Iterations 12
DICPCG:  Solving for p, Initial residual = 0.00479509, Final residual = 0.000210111, No Iterations 44
time step continuity errors : sum local = 1.27165e-07, global = -1.12952e-19, cumulative = -6.97418e-19
DICPCG:  Solving for p, Initial residual = 0.00408628, Final residual = 9.73838e-07, No Iterations 118
time step continuity errors : sum local = 5.30635e-10, global = -1.8815e-19, cumulative = -8.85568e-19
ExecutionTime = 1.16 s  ClockTime = 2 s

Time = 0.05375

Courant Number mean: 0.165381 max: 0.949793
smoothSolver:  Solving for Ux, Initial residual = 0.00275332, Final residual = 6.12817e-06, No Iterations 11
smoothSolver:  Solving for Uy, Initial residual = 0.00438036, Final residual = 5.92138e-06, No Iterations 12
DICPCG:  Solving for p, Initial residual = 0.00463559, Final residual = 0.000215955, No Iterations 90
time step continuity errors : sum local = 1.17757e-07, global = -6.50422e-20, cumulative = -9.5061e-19
DICPCG:  Solving for p, Initial residual = 0.00388248, Final residual = 9.55554e-07, No Iterations 118
time step continuity errors : sum local = 5.20365e-10, global = 2.02729e-19, cumulative = -7.47881e-19
ExecutionTime = 1.18 s  ClockTime = 2 s

Time = 0.055

Courant Number mean: 0.166451 max: 0.950166
smoothSolver:  Solving for Ux, Initial residual = 0.00266539, Final residual = 5.94399e-06, No Iterations 11
smoothSolver:  Solving for Uy, Initial residual = 0.00426084, Final residual = 9.99904e-06, No Iterations 11
DICPCG:  Solving for p, Initial residual = 0.00435025, Final residual = 0.000184003, No Iterations 44
time step continuity errors : sum local = 1.07191e-07, global = 5.96081e-20, cumulative = -6.88273e-19
DICPCG:  Solving for p, Initial residual = 0.00367505, Final residual = 8.94607e-07, No Iterations 118
time step continuity errors : sum local = 4.87349e-10, global = 3.06361e-19, cumulative = -3.81911e-19
ExecutionTime = 1.21 s  ClockTime = 2 s

Time = 0.05625

Courant Number mean: 0.167492 max: 0.950524
smoothSolver:  Solving for Ux, Initial residual = 0.00258451, Final residual = 5.76912e-06, No Iterations 11
smoothSolver:  Solving for Uy, Initial residual = 0.00415099, Final residual = 9.74116e-06, No Iterations 11
DICPCG:  Solving for p, Initial residual = 0.00443457, Final residual = 0.000195454, No Iterations 44
time step continuity errors : sum local = 1.19988e-07, global = 2.67257e-20, cumulative = -3.55186e-19
DICPCG:  Solving for p, Initial residual = 0.00377782, Final residual = 8.90966e-07, No Iterations 118
time step continuity errors : sum local = 4.86077e-10, global = 2.17527e-20, cumulative = -3.33433e-19
ExecutionTime = 1.23 s  ClockTime = 2 s

Time = 0.0575

Courant Number mean: 0.168508 max: 0.950867
smoothSolver:  Solving for Ux, Initial residual = 0.0025236, Final residual = 9.82619e-06, No Iterations 10
smoothSolver:  Solving for Uy, Initial residual = 0.00402062, Final residual = 9.42705e-06, No Iterations 11
DICPCG:  Solving for p, Initial residual = 0.00430984, Final residual = 0.000193784, No Iterations 90
time step continuity errors : sum local = 1.05809e-07, global = -3.03801e-20, cumulative = -3.63813e-19
DICPCG:  Solving for p, Initial residual = 0.00360577, Final residual = 8.6666e-07, No Iterations 118
time step continuity errors : sum local = 4.72547e-10, global = -2.7644e-20, cumulative = -3.91457e-19
ExecutionTime = 1.26 s  ClockTime = 2 s

Time = 0.05875

Courant Number mean: 0.169497 max: 0.951199
smoothSolver:  Solving for Ux, Initial residual = 0.00244629, Final residual = 9.53972e-06, No Iterations 10
smoothSolver:  Solving for Uy, Initial residual = 0.00391711, Final residual = 9.19467e-06, No Iterations 11
DICPCG:  Solving for p, Initial residual = 0.00403012, Final residual = 0.000169261, No Iterations 44
time step continuity errors : sum local = 9.79691e-08, global = 3.4613e-20, cumulative = -3.56844e-19
DICPCG:  Solving for p, Initial residual = 0.00340513, Final residual = 9.52364e-07, No Iterations 117
time step continuity errors : sum local = 5.20058e-10, global = 6.37666e-20, cumulative = -2.93078e-19
ExecutionTime = 1.28 s  ClockTime = 2 s

Time = 0.06

Courant Number mean: 0.170461 max: 0.951518
smoothSolver:  Solving for Ux, Initial residual = 0.0023757, Final residual = 9.27172e-06, No Iterations 10
smoothSolver:  Solving for Uy, Initial residual = 0.00382016, Final residual = 8.9671e-06, No Iterations 11
DICPCG:  Solving for p, Initial residual = 0.00411183, Final residual = 0.000175321, No Iterations 44
time step continuity errors : sum local = 1.0666e-07, global = -9.99325e-20, cumulative = -3.9301e-19
DICPCG:  Solving for p, Initial residual = 0.00351093, Final residual = 9.36862e-07, No Iterations 117
time step continuity errors : sum local = 5.11589e-10, global = 1.31693e-19, cumulative = -2.61317e-19
ExecutionTime = 1.3 s  ClockTime = 2 s

Time = 0.06125

Courant Number mean: 0.171401 max: 0.951824
smoothSolver:  Solving for Ux, Initial residual = 0.00232122, Final residual = 9.07494e-06, No Iterations 10
smoothSolver:  Solving for Uy, Initial residual = 0.00370698, Final residual = 8.69442e-06, No Iterations 11
DICPCG:  Solving for p, Initial residual = 0.003997, Final residual = 0.000171049, No Iterations 90
time step continuity errors : sum local = 9.35218e-08, global = -7.48637e-20, cumulative = -3.3618e-19
DICPCG:  Solving for p, Initial residual = 0.00334484, Final residual = 9.29256e-07, No Iterations 117
time step continuity errors : sum local = 5.0679e-10, global = 2.91319e-20, cumulative = -3.07048e-19
ExecutionTime = 1.33 s  ClockTime = 2 s

Time = 0.0625

Courant Number mean: 0.172323 max: 0.95212
smoothSolver:  Solving for Ux, Initial residual = 0.00225445, Final residual = 8.82527e-06, No Iterations 10
smoothSolver:  Solving for Uy, Initial residual = 0.00361517, Final residual = 8.48744e-06, No Iterations 11
DICPCG:  Solving for p, Initial residual = 0.00373962, Final residual = 0.000153139, No Iterations 44
time step continuity errors : sum local = 8.91755e-08, global = 3.46013e-19, cumulative = 3.89645e-20
DICPCG:  Solving for p, Initial residual = 0.00316308, Final residual = 8.63902e-07, No Iterations 117
time step continuity errors : sum local = 4.72278e-10, global = 2.38036e-19, cumulative = 2.77001e-19
ExecutionTime = 1.35 s  ClockTime = 2 s

Time = 0.06375

Courant Number mean: 0.173225 max: 0.952405
smoothSolver:  Solving for Ux, Initial residual = 0.00219261, Final residual = 8.58935e-06, No Iterations 10
smoothSolver:  Solving for Uy, Initial residual = 0.00353057, Final residual = 8.2883e-06, No Iterations 11
DICPCG:  Solving for p, Initial residual = 0.00383485, Final residual = 0.000162986, No Iterations 44
time step continuity errors : sum local = 1.00015e-07, global = -1.5368e-19, cumulative = 1.2332e-19
DICPCG:  Solving for p, Initial residual = 0.00327691, Final residual = 8.57569e-07, No Iterations 117
time step continuity errors : sum local = 4.68727e-10, global = -1.93221e-19, cumulative = -6.99006e-20
ExecutionTime = 1.37 s  ClockTime = 2 s

Time = 0.065

Courant Number mean: 0.174108 max: 0.95268
smoothSolver:  Solving for Ux, Initial residual = 0.00214593, Final residual = 8.42094e-06, No Iterations 10
smoothSolver:  Solving for Uy, Initial residual = 0.0034292, Final residual = 8.04364e-06, No Iterations 11
DICPCG:  Solving for p, Initial residual = 0.00373866, Final residual = 0.000180543, No Iterations 89
time step continuity errors : sum local = 9.87325e-08, global = -1.23153e-19, cumulative = -1.93054e-19
DICPCG:  Solving for p, Initial residual = 0.00313154, Final residual = 8.33285e-07, No Iterations 117
time step continuity errors : sum local = 4.54935e-10, global = 2.86792e-19, cumulative = 9.3739e-20
ExecutionTime = 1.4 s  ClockTime = 2 s

Time = 0.06625

Courant Number mean: 0.174973 max: 0.952946
smoothSolver:  Solving for Ux, Initial residual = 0.00208578, Final residual = 8.19558e-06, No Iterations 10
smoothSolver:  Solving for Uy, Initial residual = 0.00334842, Final residual = 7.86214e-06, No Iterations 11
DICPCG:  Solving for p, Initial residual = 0.0035163, Final residual = 0.00016988, No Iterations 43
time step continuity errors : sum local = 9.76717e-08, global = -5.16154e-20, cumulative = 4.21235e-20
DICPCG:  Solving for p, Initial residual = 0.00298181, Final residual = 7.70006e-07, No Iterations 117
time step continuity errors : sum local = 4.21396e-10, global = -4.29734e-20, cumulative = -8.4986e-22
ExecutionTime = 1.42 s  ClockTime = 2 s

Time = 0.0675

Courant Number mean: 0.175817 max: 0.953202
smoothSolver:  Solving for Ux, Initial residual = 0.00203046, Final residual = 7.98164e-06, No Iterations 10
smoothSolver:  Solving for Uy, Initial residual = 0.00327366, Final residual = 7.68641e-06, No Iterations 11
DICPCG:  Solving for p, Initial residual = 0.00359502, Final residual = 0.000149142, No Iterations 44
time step continuity errors : sum local = 9.12821e-08, global = 2.31201e-19, cumulative = 2.30351e-19
DICPCG:  Solving for p, Initial residual = 0.00306451, Final residual = 9.87954e-07, No Iterations 116
time step continuity errors : sum local = 5.409e-10, global = -2.26254e-20, cumulative = 2.07726e-19
ExecutionTime = 1.44 s  ClockTime = 2 s

Time = 0.06875

Courant Number mean: 0.176643 max: 0.95345
smoothSolver:  Solving for Ux, Initial residual = 0.00198937, Final residual = 7.83048e-06, No Iterations 10
smoothSolver:  Solving for Uy, Initial residual = 0.00318273, Final residual = 7.46709e-06, No Iterations 11
DICPCG:  Solving for p, Initial residual = 0.00349622, Final residual = 0.000158001, No Iterations 89
time step continuity errors : sum local = 8.65171e-08, global = 8.89206e-20, cumulative = 2.96646e-19
DICPCG:  Solving for p, Initial residual = 0.00293053, Final residual = 9.32979e-07, No Iterations 116
time step continuity errors : sum local = 5.10336e-10, global = -6.00474e-20, cumulative = 2.36599e-19
ExecutionTime = 1.47 s  ClockTime = 2 s

Time = 0.07

Courant Number mean: 0.17745 max: 0.953689
smoothSolver:  Solving for Ux, Initial residual = 0.0019362, Final residual = 7.63049e-06, No Iterations 10
smoothSolver:  Solving for Uy, Initial residual = 0.00311026, Final residual = 7.30414e-06, No Iterations 11
DICPCG:  Solving for p, Initial residual = 0.003278, Final residual = 0.000150007, No Iterations 43
time step continuity errors : sum local = 8.6758e-08, global = 2.83122e-19, cumulative = 5.19721e-19
DICPCG:  Solving for p, Initial residual = 0.00278161, Final residual = 9.05998e-07, No Iterations 116
time step continuity errors : sum local = 4.9585e-10, global = -2.84345e-19, cumulative = 2.35376e-19
ExecutionTime = 1.49 s  ClockTime = 2 s

Time = 0.07125

Courant Number mean: 0.17824 max: 0.953921
smoothSolver:  Solving for Ux, Initial residual = 0.00188691, Final residual = 7.43976e-06, No Iterations 10
smoothSolver:  Solving for Uy, Initial residual = 0.003044, Final residual = 7.14811e-06, No Iterations 11
DICPCG:  Solving for p, Initial residual = 0.00335658, Final residual = 0.00016286, No Iterations 43
time step continuity errors : sum local = 9.87042e-08, global = 1.12596e-19, cumulative = 3.47972e-19
DICPCG:  Solving for p, Initial residual = 0.00287788, Final residual = 8.89564e-07, No Iterations 116
time step continuity errors : sum local = 4.8748e-10, global = -1.10185e-19, cumulative = 2.37787e-19
ExecutionTime = 1.51 s  ClockTime = 2 s

Time = 0.0725

Courant Number mean: 0.179013 max: 0.954145
smoothSolver:  Solving for Ux, Initial residual = 0.0018505, Final residual = 7.30654e-06, No Iterations 10
smoothSolver:  Solving for Uy, Initial residual = 0.00296235, Final residual = 6.95093e-06, No Iterations 11
DICPCG:  Solving for p, Initial residual = 0.00328512, Final residual = 0.000140141, No Iterations 89
time step continuity errors : sum local = 7.67979e-08, global = -4.82164e-19, cumulative = -2.44377e-19
DICPCG:  Solving for p, Initial residual = 0.0027562, Final residual = 8.22614e-07, No Iterations 116
time step continuity errors : sum local = 4.50357e-10, global = -2.01462e-19, cumulative = -4.45838e-19
ExecutionTime = 1.54 s  ClockTime = 2 s

Time = 0.07375

Courant Number mean: 0.179768 max: 0.954362
smoothSolver:  Solving for Ux, Initial residual = 0.00180288, Final residual = 7.12684e-06, No Iterations 10
smoothSolver:  Solving for Uy, Initial residual = 0.00289685, Final residual = 6.80408e-06, No Iterations 11
DICPCG:  Solving for p, Initial residual = 0.00306798, Final residual = 0.00015163, No Iterations 42
time step continuity errors : sum local = 8.73142e-08, global = -7.07789e-20, cumulative = -5.16617e-19
DICPCG:  Solving for p, Initial residual = 0.00260827, Final residual = 9.82188e-07, No Iterations 115
time step continuity errors : sum local = 5.37651e-10, global = 6.53851e-20, cumulative = -4.51232e-19
ExecutionTime = 1.56 s  ClockTime = 2 s

Time = 0.075

Courant Number mean: 0.180508 max: 0.954572
smoothSolver:  Solving for Ux, Initial residual = 0.00175805, Final residual = 6.95142e-06, No Iterations 10
smoothSolver:  Solving for Uy, Initial residual = 0.00283836, Final residual = 6.66613e-06, No Iterations 11
DICPCG:  Solving for p, Initial residual = 0.00314026, Final residual = 0.000147612, No Iterations 43
time step continuity errors : sum local = 8.99298e-08, global = 3.34058e-20, cumulative = -4.17826e-19
DICPCG:  Solving for p, Initial residual = 0.00267951, Final residual = 9.45637e-07, No Iterations 115
time step continuity errors : sum local = 5.18386e-10, global = -8.02634e-20, cumulative = -4.9809e-19
ExecutionTime = 1.6 s  ClockTime = 2 s

Time = 0.07625

Courant Number mean: 0.181232 max: 0.954775
smoothSolver:  Solving for Ux, Initial residual = 0.00172633, Final residual = 6.83364e-06, No Iterations 10
smoothSolver:  Solving for Uy, Initial residual = 0.00276359, Final residual = 6.48559e-06, No Iterations 11
DICPCG:  Solving for p, Initial residual = 0.00309131, Final residual = 0.000126327, No Iterations 89
time step continuity errors : sum local = 6.93026e-08, global = 5.71013e-20, cumulative = -4.40988e-19
DICPCG:  Solving for p, Initial residual = 0.0025945, Final residual = 9.10882e-07, No Iterations 115
time step continuity errors : sum local = 4.99191e-10, global = 1.33314e-20, cumulative = -4.27657e-19
ExecutionTime = 1.63 s  ClockTime = 2 s

Time = 0.0775

Courant Number mean: 0.18194 max: 0.954972
smoothSolver:  Solving for Ux, Initial residual = 0.00168332, Final residual = 6.67015e-06, No Iterations 10
smoothSolver:  Solving for Uy, Initial residual = 0.00270461, Final residual = 6.35362e-06, No Iterations 11
DICPCG:  Solving for p, Initial residual = 0.00287916, Final residual = 0.000136046, No Iterations 42
time step continuity errors : sum local = 7.86136e-08, global = -1.76258e-19, cumulative = -6.03915e-19
DICPCG:  Solving for p, Initial residual = 0.00244815, Final residual = 9.58976e-07, No Iterations 113
time step continuity errors : sum local = 5.25067e-10, global = 1.39929e-19, cumulative = -4.63986e-19
ExecutionTime = 1.65 s  ClockTime = 2 s

Time = 0.07875

Courant Number mean: 0.182634 max: 0.955163
smoothSolver:  Solving for Ux, Initial residual = 0.0016429, Final residual = 6.51185e-06, No Iterations 10
smoothSolver:  Solving for Uy, Initial residual = 0.002652, Final residual = 6.22933e-06, No Iterations 11
DICPCG:  Solving for p, Initial residual = 0.00294173, Final residual = 0.000133314, No Iterations 43
time step continuity errors : sum local = 8.15865e-08, global = -2.56741e-19, cumulative = -7.20727e-19
DICPCG:  Solving for p, Initial residual = 0.00250801, Final residual = 9.61535e-07, No Iterations 113
time step continuity errors : sum local = 5.26382e-10, global = -1.2036e-20, cumulative = -7.32763e-19
ExecutionTime = 1.67 s  ClockTime = 2 s

Time = 0.08

Courant Number mean: 0.183315 max: 0.955347
smoothSolver:  Solving for Ux, Initial residual = 0.00161455, Final residual = 6.40686e-06, No Iterations 10
smoothSolver:  Solving for Uy, Initial residual = 0.0025841, Final residual = 6.06532e-06, No Iterations 11
DICPCG:  Solving for p, Initial residual = 0.00290093, Final residual = 0.000140664, No Iterations 88
time step continuity errors : sum local = 7.71915e-08, global = -2.07565e-19, cumulative = -9.40328e-19
DICPCG:  Solving for p, Initial residual = 0.00244428, Final residual = 9.21783e-07, No Iterations 113
time step continuity errors : sum local = 5.04892e-10, global = -5.59402e-20, cumulative = -9.96269e-19
ExecutionTime = 1.69 s  ClockTime = 2 s

Time = 0.08125

Courant Number mean: 0.183983 max: 0.955527
smoothSolver:  Solving for Ux, Initial residual = 0.00157553, Final residual = 6.25888e-06, No Iterations 10
smoothSolver:  Solving for Uy, Initial residual = 0.00253096, Final residual = 5.94625e-06, No Iterations 11
DICPCG:  Solving for p, Initial residual = 0.0027362, Final residual = 0.000133943, No Iterations 41
time step continuity errors : sum local = 7.70753e-08, global = 2.89717e-19, cumulative = -7.06552e-19
DICPCG:  Solving for p, Initial residual = 0.00232731, Final residual = 8.02864e-07, No Iterations 113
time step continuity errors : sum local = 4.39821e-10, global = -1.02056e-19, cumulative = -8.08608e-19
ExecutionTime = 1.72 s  ClockTime = 2 s

Time = 0.0825

Courant Number mean: 0.18464 max: 0.955701
smoothSolver:  Solving for Ux, Initial residual = 0.00153844, Final residual = 6.11299e-06, No Iterations 10
smoothSolver:  Solving for Uy, Initial residual = 0.00248366, Final residual = 5.83459e-06, No Iterations 11
DICPCG:  Solving for p, Initial residual = 0.0027644, Final residual = 0.000122593, No Iterations 43
time step continuity errors : sum local = 7.49624e-08, global = 1.08165e-19, cumulative = -7.00443e-19
DICPCG:  Solving for p, Initial residual = 0.00233324, Final residual = 8.35569e-07, No Iterations 113
time step continuity errors : sum local = 4.57699e-10, global = 5.59891e-20, cumulative = -6.44454e-19
ExecutionTime = 1.74 s  ClockTime = 2 s

Time = 0.08375

Courant Number mean: 0.185285 max: 0.95587
smoothSolver:  Solving for Ux, Initial residual = 0.00151324, Final residual = 6.01854e-06, No Iterations 10
smoothSolver:  Solving for Uy, Initial residual = 0.00242136, Final residual = 9.85514e-06, No Iterations 10
DICPCG:  Solving for p, Initial residual = 0.00272585, Final residual = 0.000125328, No Iterations 88
time step continuity errors : sum local = 6.8836e-08, global = -1.48046e-19, cumulative = -7.925e-19
DICPCG:  Solving for p, Initial residual = 0.0022943, Final residual = 8.21514e-07, No Iterations 113
time step continuity errors : sum local = 4.50182e-10, global = 1.21064e-19, cumulative = -6.71435e-19
ExecutionTime = 1.76 s  ClockTime = 2 s

Time = 0.085

Courant Number mean: 0.185917 max: 0.956033
smoothSolver:  Solving for Ux, Initial residual = 0.00147785, Final residual = 5.88308e-06, No Iterations 10
smoothSolver:  Solving for Uy, Initial residual = 0.00237301, Final residual = 9.66706e-06, No Iterations 10
DICPCG:  Solving for p, Initial residual = 0.00255982, Final residual = 0.000120458, No Iterations 37
time step continuity errors : sum local = 7.00334e-08, global = 2.38377e-20, cumulative = -6.47598e-19
DICPCG:  Solving for p, Initial residual = 0.00216231, Final residual = 9.02206e-07, No Iterations 112
time step continuity errors : sum local = 4.94621e-10, global = -1.38782e-19, cumulative = -7.8638e-19
ExecutionTime = 1.79 s  ClockTime = 3 s

Time = 0.08625

Courant Number mean: 0.186536 max: 0.956192
smoothSolver:  Solving for Ux, Initial residual = 0.00144245, Final residual = 9.97716e-06, No Iterations 9
smoothSolver:  Solving for Uy, Initial residual = 0.00233321, Final residual = 9.50269e-06, No Iterations 10
DICPCG:  Solving for p, Initial residual = 0.00258348, Final residual = 0.000118384, No Iterations 43
time step continuity errors : sum local = 7.35965e-08, global = 1.95918e-19, cumulative = -5.90462e-19
DICPCG:  Solving for p, Initial residual = 0.00218539, Final residual = 9.46208e-07, No Iterations 112
time step continuity errors : sum local = 5.18669e-10, global = 2.80154e-19, cumulative = -3.10308e-19
ExecutionTime = 1.82 s  ClockTime = 3 s

Time = 0.0875

Courant Number mean: 0.187143 max: 0.956347
smoothSolver:  Solving for Ux, Initial residual = 0.00142262, Final residual = 9.84616e-06, No Iterations 9
smoothSolver:  Solving for Uy, Initial residual = 0.00227186, Final residual = 9.24663e-06, No Iterations 10
DICPCG:  Solving for p, Initial residual = 0.00258502, Final residual = 0.000120707, No Iterations 88
time step continuity errors : sum local = 6.62883e-08, global = -2.30512e-20, cumulative = -3.3336e-19
DICPCG:  Solving for p, Initial residual = 0.00217795, Final residual = 8.89475e-07, No Iterations 112
time step continuity errors : sum local = 4.87804e-10, global = -8.77179e-20, cumulative = -4.21077e-19
ExecutionTime = 1.84 s  ClockTime = 3 s

Time = 0.08875

Courant Number mean: 0.187739 max: 0.956497
smoothSolver:  Solving for Ux, Initial residual = 0.00138917, Final residual = 9.62392e-06, No Iterations 9
smoothSolver:  Solving for Uy, Initial residual = 0.00222905, Final residual = 9.08105e-06, No Iterations 10
DICPCG:  Solving for p, Initial residual = 0.00241973, Final residual = 0.000120843, No Iterations 37
time step continuity errors : sum local = 6.89716e-08, global = -1.33645e-19, cumulative = -5.54722e-19
DICPCG:  Solving for p, Initial residual = 0.00204846, Final residual = 9.81702e-07, No Iterations 111
time step continuity errors : sum local = 5.38448e-10, global = 2.63569e-20, cumulative = -5.28365e-19
ExecutionTime = 1.86 s  ClockTime = 3 s

Time = 0.09

Courant Number mean: 0.188323 max: 0.956643
smoothSolver:  Solving for Ux, Initial residual = 0.00135667, Final residual = 9.40201e-06, No Iterations 9
smoothSolver:  Solving for Uy, Initial residual = 0.00219204, Final residual = 8.92912e-06, No Iterations 10
DICPCG:  Solving for p, Initial residual = 0.00243134, Final residual = 9.99438e-05, No Iterations 43
time step continuity errors : sum local = 6.12111e-08, global = -1.20425e-19, cumulative = -6.4879e-19
DICPCG:  Solving for p, Initial residual = 0.00205926, Final residual = 8.07327e-07, No Iterations 112
time step continuity errors : sum local = 4.42755e-10, global = -2.06247e-20, cumulative = -6.69414e-19
ExecutionTime = 1.88 s  ClockTime = 3 s

Time = 0.09125

Courant Number mean: 0.188897 max: 0.956784
smoothSolver:  Solving for Ux, Initial residual = 0.00133756, Final residual = 9.27505e-06, No Iterations 9
smoothSolver:  Solving for Uy, Initial residual = 0.00213712, Final residual = 8.70131e-06, No Iterations 10
DICPCG:  Solving for p, Initial residual = 0.00240642, Final residual = 0.00010476, No Iterations 88
time step continuity errors : sum local = 5.76055e-08, global = -2.3758e-19, cumulative = -9.06994e-19
DICPCG:  Solving for p, Initial residual = 0.00203054, Final residual = 9.59098e-07, No Iterations 111
time step continuity errors : sum local = 5.2692e-10, global = 2.39558e-20, cumulative = -8.83038e-19
ExecutionTime = 1.91 s  ClockTime = 3 s

Time = 0.0925

Courant Number mean: 0.189459 max: 0.956922
smoothSolver:  Solving for Ux, Initial residual = 0.00130817, Final residual = 9.07868e-06, No Iterations 9
smoothSolver:  Solving for Uy, Initial residual = 0.00209684, Final residual = 8.54385e-06, No Iterations 10
DICPCG:  Solving for p, Initial residual = 0.00227462, Final residual = 0.000110628, No Iterations 37
time step continuity errors : sum local = 6.37094e-08, global = -7.28766e-20, cumulative = -9.55915e-19
DICPCG:  Solving for p, Initial residual = 0.00192739, Final residual = 9.75471e-07, No Iterations 110
time step continuity errors : sum local = 5.35509e-10, global = -1.83849e-19, cumulative = -1.13976e-18
ExecutionTime = 1.93 s  ClockTime = 3 s

Time = 0.09375

Courant Number mean: 0.190011 max: 0.957055
smoothSolver:  Solving for Ux, Initial residual = 0.00127828, Final residual = 8.87285e-06, No Iterations 9
smoothSolver:  Solving for Uy, Initial residual = 0.00206361, Final residual = 8.40666e-06, No Iterations 10
DICPCG:  Solving for p, Initial residual = 0.00229513, Final residual = 9.64874e-05, No Iterations 43
time step continuity errors : sum local = 6.00346e-08, global = 3.0424e-19, cumulative = -8.35524e-19
DICPCG:  Solving for p, Initial residual = 0.00194347, Final residual = 9.81487e-07, No Iterations 110
time step continuity errors : sum local = 5.38263e-10, global = -1.03056e-19, cumulative = -9.38581e-19
ExecutionTime = 1.95 s  ClockTime = 3 s

Time = 0.095

Courant Number mean: 0.190553 max: 0.957185
smoothSolver:  Solving for Ux, Initial residual = 0.00126169, Final residual = 8.76168e-06, No Iterations 9
smoothSolver:  Solving for Uy, Initial residual = 0.00201217, Final residual = 8.1928e-06, No Iterations 10
DICPCG:  Solving for p, Initial residual = 0.00228334, Final residual = 0.000100571, No Iterations 88
time step continuity errors : sum local = 5.52916e-08, global = -2.31791e-19, cumulative = -1.17037e-18
DICPCG:  Solving for p, Initial residual = 0.00192697, Final residual = 9.60846e-07, No Iterations 109
time step continuity errors : sum local = 5.28144e-10, global = 2.83964e-21, cumulative = -1.16753e-18
ExecutionTime = 1.98 s  ClockTime = 3 s

Time = 0.09625

Courant Number mean: 0.191085 max: 0.957312
smoothSolver:  Solving for Ux, Initial residual = 0.00123389, Final residual = 8.5755e-06, No Iterations 9
smoothSolver:  Solving for Uy, Initial residual = 0.00197583, Final residual = 8.0519e-06, No Iterations 10
DICPCG:  Solving for p, Initial residual = 0.00215113, Final residual = 0.0001021, No Iterations 37
time step continuity errors : sum local = 5.86882e-08, global = 7.21974e-20, cumulative = -1.09534e-18
DICPCG:  Solving for p, Initial residual = 0.00182234, Final residual = 9.465e-07, No Iterations 109
time step continuity errors : sum local = 5.1976e-10, global = -1.98571e-20, cumulative = -1.11519e-18
ExecutionTime = 2 s  ClockTime = 3 s

Time = 0.0975

Courant Number mean: 0.191607 max: 0.957435
smoothSolver:  Solving for Ux, Initial residual = 0.00120649, Final residual = 8.38677e-06, No Iterations 9
smoothSolver:  Solving for Uy, Initial residual = 0.00194487, Final residual = 7.92434e-06, No Iterations 10
DICPCG:  Solving for p, Initial residual = 0.00216025, Final residual = 0.000106725, No Iterations 42
time step continuity errors : sum local = 6.47336e-08, global = 6.93552e-20, cumulative = -1.04584e-18
DICPCG:  Solving for p, Initial residual = 0.00183055, Final residual = 9.48599e-07, No Iterations 109
time step continuity errors : sum local = 5.20941e-10, global = 1.93371e-19, cumulative = -8.52465e-19
ExecutionTime = 2.02 s  ClockTime = 3 s

Time = 0.09875

Courant Number mean: 0.192119 max: 0.957555
smoothSolver:  Solving for Ux, Initial residual = 0.00119052, Final residual = 8.27919e-06, No Iterations 9
smoothSolver:  Solving for Uy, Initial residual = 0.00189835, Final residual = 7.7312e-06, No Iterations 10
DICPCG:  Solving for p, Initial residual = 0.00215147, Final residual = 0.000106219, No Iterations 82
time step continuity errors : sum local = 5.8388e-08, global = -2.58931e-19, cumulative = -1.1114e-18
DICPCG:  Solving for p, Initial residual = 0.00182146, Final residual = 9.67583e-07, No Iterations 108
time step continuity errors : sum local = 5.32263e-10, global = 1.21061e-19, cumulative = -9.90336e-19
ExecutionTime = 2.04 s  ClockTime = 3 s

Time = 0.1

Courant Number mean: 0.192622 max: 0.957671
smoothSolver:  Solving for Ux, Initial residual = 0.00116614, Final residual = 8.11611e-06, No Iterations 9
smoothSolver:  Solving for Uy, Initial residual = 0.00186613, Final residual = 7.60571e-06, No Iterations 10
DICPCG:  Solving for p, Initial residual = 0.00202836, Final residual = 9.34159e-05, No Iterations 41
time step continuity errors : sum local = 5.21049e-08, global = -2.1181e-19, cumulative = -1.20215e-18
DICPCG:  Solving for p, Initial residual = 0.00172453, Final residual = 8.31169e-07, No Iterations 109
time step continuity errors : sum local = 4.56972e-10, global = 6.96496e-20, cumulative = -1.1325e-18
ExecutionTime = 2.08 s  ClockTime = 3 s

Time = 0.10125

Courant Number mean: 0.193117 max: 0.957785
smoothSolver:  Solving for Ux, Initial residual = 0.00114203, Final residual = 7.95136e-06, No Iterations 9
smoothSolver:  Solving for Uy, Initial residual = 0.00183182, Final residual = 7.46697e-06, No Iterations 10
DICPCG:  Solving for p, Initial residual = 0.00204419, Final residual = 0.000100922, No Iterations 37
time step continuity errors : sum local = 5.60128e-08, global = -2.11896e-19, cumulative = -1.34439e-18
DICPCG:  Solving for p, Initial residual = 0.00172792, Final residual = 9.51621e-07, No Iterations 108
time step continuity errors : sum local = 5.24019e-10, global = 1.62511e-19, cumulative = -1.18188e-18
ExecutionTime = 2.1 s  ClockTime = 3 s

Time = 0.1025

Courant Number mean: 0.193602 max: 0.957895
smoothSolver:  Solving for Ux, Initial residual = 0.00112041, Final residual = 7.80595e-06, No Iterations 9
smoothSolver:  Solving for Uy, Initial residual = 0.00179838, Final residual = 7.3298e-06, No Iterations 10
DICPCG:  Solving for p, Initial residual = 0.00198321, Final residual = 9.0097e-05, No Iterations 37
time step continuity errors : sum local = 5.07544e-08, global = -6.6378e-20, cumulative = -1.24826e-18
DICPCG:  Solving for p, Initial residual = 0.00169958, Final residual = 9.32085e-07, No Iterations 108
time step continuity errors : sum local = 5.1261e-10, global = 1.10686e-19, cumulative = -1.13757e-18
ExecutionTime = 2.12 s  ClockTime = 3 s

Time = 0.10375

Courant Number mean: 0.194078 max: 0.958003
smoothSolver:  Solving for Ux, Initial residual = 0.00109944, Final residual = 7.66116e-06, No Iterations 9
smoothSolver:  Solving for Uy, Initial residual = 0.0017659, Final residual = 7.1972e-06, No Iterations 10
DICPCG:  Solving for p, Initial residual = 0.0019302, Final residual = 8.29849e-05, No Iterations 37
time step continuity errors : sum local = 4.97636e-08, global = 3.24345e-19, cumulative = -8.13229e-19
DICPCG:  Solving for p, Initial residual = 0.00164757, Final residual = 9.9327e-07, No Iterations 107
time step continuity errors : sum local = 5.46011e-10, global = 2.94523e-20, cumulative = -7.83776e-19
ExecutionTime = 2.14 s  ClockTime = 3 s

Time = 0.105

Courant Number mean: 0.194547 max: 0.958108
smoothSolver:  Solving for Ux, Initial residual = 0.00108306, Final residual = 7.54968e-06, No Iterations 9
smoothSolver:  Solving for Uy, Initial residual = 0.00172881, Final residual = 7.04347e-06, No Iterations 10
DICPCG:  Solving for p, Initial residual = 0.00190157, Final residual = 8.95562e-05, No Iterations 77
time step continuity errors : sum local = 4.92671e-08, global = -2.6584e-19, cumulative = -1.04962e-18
DICPCG:  Solving for p, Initial residual = 0.00159818, Final residual = 9.81778e-07, No Iterations 107
time step continuity errors : sum local = 5.39604e-10, global = -6.47813e-20, cumulative = -1.1144e-18
ExecutionTime = 2.16 s  ClockTime = 3 s

Time = 0.10625

Courant Number mean: 0.195008 max: 0.95821
smoothSolver:  Solving for Ux, Initial residual = 0.00106413, Final residual = 7.42288e-06, No Iterations 9
smoothSolver:  Solving for Uy, Initial residual = 0.0016974, Final residual = 6.92068e-06, No Iterations 10
DICPCG:  Solving for p, Initial residual = 0.00182107, Final residual = 9.02906e-05, No Iterations 37
time step continuity errors : sum local = 5.12772e-08, global = -3.31001e-21, cumulative = -1.11771e-18
DICPCG:  Solving for p, Initial residual = 0.00154497, Final residual = 8.88822e-07, No Iterations 108
time step continuity errors : sum local = 4.88772e-10, global = 2.08001e-19, cumulative = -9.09707e-19
ExecutionTime = 2.19 s  ClockTime = 3 s

Time = 0.1075

Courant Number mean: 0.195463 max: 0.958309
smoothSolver:  Solving for Ux, Initial residual = 0.00104114, Final residual = 7.26357e-06, No Iterations 9
smoothSolver:  Solving for Uy, Initial residual = 0.00167103, Final residual = 6.81146e-06, No Iterations 10
DICPCG:  Solving for p, Initial residual = 0.00186107, Final residual = 9.1736e-05, No Iterations 41
time step continuity errors : sum local = 5.32218e-08, global = -2.2234e-19, cumulative = -1.13205e-18
DICPCG:  Solving for p, Initial residual = 0.00157331, Final residual = 8.98997e-07, No Iterations 107
time step continuity errors : sum local = 4.94397e-10, global = -1.31725e-19, cumulative = -1.26377e-18
ExecutionTime = 2.2 s  ClockTime = 3 s

Time = 0.10875

Courant Number mean: 0.19591 max: 0.958407
smoothSolver:  Solving for Ux, Initial residual = 0.00102622, Final residual = 7.1621e-06, No Iterations 9
smoothSolver:  Solving for Uy, Initial residual = 0.00163561, Final residual = 6.66607e-06, No Iterations 10
DICPCG:  Solving for p, Initial residual = 0.0018361, Final residual = 9.09727e-05, No Iterations 37
time step continuity errors : sum local = 5.83707e-08, global = -2.65873e-19, cumulative = -1.52964e-18
DICPCG:  Solving for p, Initial residual = 0.00155219, Final residual = 9.49593e-07, No Iterations 106
time step continuity errors : sum local = 5.21964e-10, global = 1.61843e-19, cumulative = -1.3678e-18
ExecutionTime = 2.22 s  ClockTime = 3 s

Time = 0.11

Courant Number mean: 0.19635 max: 0.958502
smoothSolver:  Solving for Ux, Initial residual = 0.00100299, Final residual = 6.99514e-06, No Iterations 9
smoothSolver:  Solving for Uy, Initial residual = 0.00161849, Final residual = 6.59177e-06, No Iterations 10
DICPCG:  Solving for p, Initial residual = 0.00187438, Final residual = 9.3268e-05, No Iterations 75
time step continuity errors : sum local = 5.15245e-08, global = -1.41087e-19, cumulative = -1.50889e-18
DICPCG:  Solving for p, Initial residual = 0.00157679, Final residual = 9.95665e-07, No Iterations 107
time step continuity errors : sum local = 5.47911e-10, global = -1.68889e-19, cumulative = -1.67778e-18
ExecutionTime = 2.25 s  ClockTime = 3 s

Time = 0.11125

Courant Number mean: 0.196782 max: 0.958595
smoothSolver:  Solving for Ux, Initial residual = 0.000991794, Final residual = 6.92771e-06, No Iterations 9
smoothSolver:  Solving for Uy, Initial residual = 0.00157689, Final residual = 6.42945e-06, No Iterations 10
DICPCG:  Solving for p, Initial residual = 0.0016995, Final residual = 7.88629e-05, No Iterations 37
time step continuity errors : sum local = 4.83977e-08, global = 1.51278e-19, cumulative = -1.5265e-18
DICPCG:  Solving for p, Initial residual = 0.00144203, Final residual = 9.87049e-07, No Iterations 106
time step continuity errors : sum local = 5.42908e-10, global = -5.00296e-20, cumulative = -1.57653e-18
ExecutionTime = 2.27 s  ClockTime = 3 s

Time = 0.1125

Courant Number mean: 0.197207 max: 0.958686
smoothSolver:  Solving for Ux, Initial residual = 0.000969293, Final residual = 6.76895e-06, No Iterations 9
smoothSolver:  Solving for Uy, Initial residual = 0.00155749, Final residual = 6.34663e-06, No Iterations 10
DICPCG:  Solving for p, Initial residual = 0.00176485, Final residual = 7.82246e-05, No Iterations 75
time step continuity errors : sum local = 4.30483e-08, global = -9.87479e-20, cumulative = -1.67528e-18
DICPCG:  Solving for p, Initial residual = 0.00148489, Final residual = 9.02167e-07, No Iterations 107
time step continuity errors : sum local = 4.96367e-10, global = 5.63751e-21, cumulative = -1.66964e-18
ExecutionTime = 2.29 s  ClockTime = 3 s

Time = 0.11375

Courant Number mean: 0.197625 max: 0.958774
smoothSolver:  Solving for Ux, Initial residual = 0.000957558, Final residual = 6.69414e-06, No Iterations 9
smoothSolver:  Solving for Uy, Initial residual = 0.00152118, Final residual = 6.20354e-06, No Iterations 10
DICPCG:  Solving for p, Initial residual = 0.0016371, Final residual = 7.3363e-05, No Iterations 37
time step continuity errors : sum local = 4.52567e-08, global = 6.84828e-20, cumulative = -1.60116e-18
DICPCG:  Solving for p, Initial residual = 0.00139244, Final residual = 9.29865e-07, No Iterations 106
time step continuity errors : sum local = 5.11555e-10, global = 1.41721e-19, cumulative = -1.45944e-18
ExecutionTime = 2.31 s  ClockTime = 3 s

Time = 0.115

Courant Number mean: 0.198036 max: 0.958861
smoothSolver:  Solving for Ux, Initial residual = 0.000936319, Final residual = 6.54353e-06, No Iterations 9
smoothSolver:  Solving for Uy, Initial residual = 0.00150282, Final residual = 6.12453e-06, No Iterations 10
DICPCG:  Solving for p, Initial residual = 0.00169708, Final residual = 8.41198e-05, No Iterations 74
time step continuity errors : sum local = 4.63098e-08, global = -7.25903e-20, cumulative = -1.53203e-18
DICPCG:  Solving for p, Initial residual = 0.00142862, Final residual = 8.44861e-07, No Iterations 107
time step continuity errors : sum local = 4.64876e-10, global = 1.63008e-19, cumulative = -1.36902e-18
ExecutionTime = 2.34 s  ClockTime = 3 s

Time = 0.11625

Courant Number mean: 0.19844 max: 0.958945
smoothSolver:  Solving for Ux, Initial residual = 0.000925238, Final residual = 6.47232e-06, No Iterations 9
smoothSolver:  Solving for Uy, Initial residual = 0.00146825, Final residual = 5.98841e-06, No Iterations 10
DICPCG:  Solving for p, Initial residual = 0.0015847, Final residual = 6.59538e-05, No Iterations 37
time step continuity errors : sum local = 4.117e-08, global = -1.07563e-19, cumulative = -1.47658e-18
DICPCG:  Solving for p, Initial residual = 0.00134779, Final residual = 8.7754e-07, No Iterations 106
time step continuity errors : sum local = 4.82889e-10, global = 2.30643e-20, cumulative = -1.45352e-18
ExecutionTime = 2.36 s  ClockTime = 3 s

Time = 0.1175

Courant Number mean: 0.198838 max: 0.959027
smoothSolver:  Solving for Ux, Initial residual = 0.00090479, Final residual = 6.32726e-06, No Iterations 9
smoothSolver:  Solving for Uy, Initial residual = 0.00145089, Final residual = 5.91341e-06, No Iterations 10
DICPCG:  Solving for p, Initial residual = 0.00163827, Final residual = 8.02257e-05, No Iterations 74
time step continuity errors : sum local = 4.41672e-08, global = -8.72223e-21, cumulative = -1.46224e-18
DICPCG:  Solving for p, Initial residual = 0.00137934, Final residual = 8.13944e-07, No Iterations 107
time step continuity errors : sum local = 4.47964e-10, global = -9.6252e-20, cumulative = -1.55849e-18
ExecutionTime = 2.38 s  ClockTime = 3 s

Time = 0.11875

Courant Number mean: 0.199229 max: 0.959108
smoothSolver:  Solving for Ux, Initial residual = 0.000894233, Final residual = 6.25921e-06, No Iterations 9
smoothSolver:  Solving for Uy, Initial residual = 0.00141776, Final residual = 5.78308e-06, No Iterations 10
DICPCG:  Solving for p, Initial residual = 0.0015308, Final residual = 6.30522e-05, No Iterations 37
time step continuity errors : sum local = 3.94178e-08, global = 2.33824e-19, cumulative = -1.32467e-18
DICPCG:  Solving for p, Initial residual = 0.00130092, Final residual = 8.3945e-07, No Iterations 106
time step continuity errors : sum local = 4.62028e-10, global = -9.91992e-20, cumulative = -1.42387e-18
ExecutionTime = 2.4 s  ClockTime = 3 s

Time = 0.12

Courant Number mean: 0.199614 max: 0.959186
smoothSolver:  Solving for Ux, Initial residual = 0.000874735, Final residual = 6.12078e-06, No Iterations 9
smoothSolver:  Solving for Uy, Initial residual = 0.00140114, Final residual = 9.90038e-06, No Iterations 9
DICPCG:  Solving for p, Initial residual = 0.00156476, Final residual = 7.74681e-05, No Iterations 74
time step continuity errors : sum local = 4.26449e-08, global = -3.29858e-20, cumulative = -1.45685e-18
DICPCG:  Solving for p, Initial residual = 0.00131551, Final residual = 7.49152e-07, No Iterations 107
time step continuity errors : sum local = 4.12486e-10, global = -6.65105e-20, cumulative = -1.52336e-18
ExecutionTime = 2.42 s  ClockTime = 3 s

Time = 0.12125

Courant Number mean: 0.199992 max: 0.959262
smoothSolver:  Solving for Ux, Initial residual = 0.000864594, Final residual = 6.05507e-06, No Iterations 9
smoothSolver:  Solving for Uy, Initial residual = 0.00136965, Final residual = 9.68565e-06, No Iterations 9
DICPCG:  Solving for p, Initial residual = 0.00146603, Final residual = 5.52147e-05, No Iterations 37
time step continuity errors : sum local = 3.55634e-08, global = -2.19758e-19, cumulative = -1.74312e-18
DICPCG:  Solving for p, Initial residual = 0.00124311, Final residual = 9.98471e-07, No Iterations 105
time step continuity errors : sum local = 5.50299e-10, global = -5.76446e-20, cumulative = -1.80076e-18
ExecutionTime = 2.44 s  ClockTime = 3 s

Time = 0.1225

Courant Number mean: 0.200364 max: 0.959337
smoothSolver:  Solving for Ux, Initial residual = 0.000846361, Final residual = 5.92525e-06, No Iterations 9
smoothSolver:  Solving for Uy, Initial residual = 0.0013535, Final residual = 9.56469e-06, No Iterations 9
DICPCG:  Solving for p, Initial residual = 0.00151026, Final residual = 7.51401e-05, No Iterations 74
time step continuity errors : sum local = 4.14548e-08, global = 4.54562e-20, cumulative = -1.75531e-18
DICPCG:  Solving for p, Initial residual = 0.00126844, Final residual = 9.93318e-07, No Iterations 106
time step continuity errors : sum local = 5.46715e-10, global = 1.34205e-20, cumulative = -1.74189e-18
ExecutionTime = 2.47 s  ClockTime = 3 s

Time = 0.12375

Courant Number mean: 0.20073 max: 0.959409
smoothSolver:  Solving for Ux, Initial residual = 0.000836368, Final residual = 5.86082e-06, No Iterations 9
smoothSolver:  Solving for Uy, Initial residual = 0.00132376, Final residual = 9.36213e-06, No Iterations 9
DICPCG:  Solving for p, Initial residual = 0.00141454, Final residual = 5.3785e-05, No Iterations 37
time step continuity errors : sum local = 3.46277e-08, global = -1.11321e-19, cumulative = -1.85321e-18
DICPCG:  Solving for p, Initial residual = 0.00119866, Final residual = 9.54788e-07, No Iterations 105
time step continuity errors : sum local = 5.26293e-10, global = 3.68519e-20, cumulative = -1.81636e-18
ExecutionTime = 2.49 s  ClockTime = 3 s

Time = 0.125

Courant Number mean: 0.20109 max: 0.95948
smoothSolver:  Solving for Ux, Initial residual = 0.000818839, Final residual = 9.95176e-06, No Iterations 8
smoothSolver:  Solving for Uy, Initial residual = 0.00130821, Final residual = 9.24575e-06, No Iterations 9
DICPCG:  Solving for p, Initial residual = 0.00146471, Final residual = 6.80961e-05, No Iterations 74
time step continuity errors : sum local = 3.75617e-08, global = 1.01003e-19, cumulative = -1.71535e-18
DICPCG:  Solving for p, Initial residual = 0.00123167, Final residual = 9.92165e-07, No Iterations 106
time step continuity errors : sum local = 5.45902e-10, global = 9.25024e-20, cumulative = -1.62285e-18
ExecutionTime = 2.53 s  ClockTime = 3 s

Time = 0.12625

Courant Number mean: 0.201444 max: 0.959551
smoothSolver:  Solving for Ux, Initial residual = 0.000809329, Final residual = 9.84495e-06, No Iterations 8
smoothSolver:  Solving for Uy, Initial residual = 0.00127962, Final residual = 9.0503e-06, No Iterations 9
DICPCG:  Solving for p, Initial residual = 0.00136882, Final residual = 5.91121e-05, No Iterations 37
time step continuity errors : sum local = 3.63213e-08, global = 5.28329e-20, cumulative = -1.57002e-18
DICPCG:  Solving for p, Initial residual = 0.00116184, Final residual = 9.60216e-07, No Iterations 105
time step continuity errors : sum local = 5.29255e-10, global = -7.0892e-20, cumulative = -1.64091e-18
ExecutionTime = 2.55 s  ClockTime = 3 s

Time = 0.1275

Courant Number mean: 0.201792 max: 0.959619
smoothSolver:  Solving for Ux, Initial residual = 0.000792156, Final residual = 9.63434e-06, No Iterations 8
smoothSolver:  Solving for Uy, Initial residual = 0.00126492, Final residual = 8.94105e-06, No Iterations 9
DICPCG:  Solving for p, Initial residual = 0.00141342, Final residual = 6.17681e-05, No Iterations 74
time step continuity errors : sum local = 3.3979e-08, global = 4.58605e-20, cumulative = -1.59505e-18
DICPCG:  Solving for p, Initial residual = 0.00119158, Final residual = 9.21422e-07, No Iterations 106
time step continuity errors : sum local = 5.07036e-10, global = 1.44385e-19, cumulative = -1.45066e-18
ExecutionTime = 2.57 s  ClockTime = 3 s

Time = 0.12875

Courant Number mean: 0.202134 max: 0.959685
smoothSolver:  Solving for Ux, Initial residual = 0.000783282, Final residual = 9.53321e-06, No Iterations 8
smoothSolver:  Solving for Uy, Initial residual = 0.00123731, Final residual = 8.75186e-06, No Iterations 9
DICPCG:  Solving for p, Initial residual = 0.00132572, Final residual = 5.45012e-05, No Iterations 37
time step continuity errors : sum local = 3.36012e-08, global = -9.25227e-20, cumulative = -1.54319e-18
DICPCG:  Solving for p, Initial residual = 0.00112436, Final residual = 9.38711e-07, No Iterations 105
time step continuity errors : sum local = 5.17496e-10, global = -4.0973e-20, cumulative = -1.58416e-18
ExecutionTime = 2.6 s  ClockTime = 3 s

Time = 0.13

Courant Number mean: 0.202471 max: 0.95975
smoothSolver:  Solving for Ux, Initial residual = 0.000767158, Final residual = 9.33503e-06, No Iterations 8
smoothSolver:  Solving for Uy, Initial residual = 0.00122325, Final residual = 8.64728e-06, No Iterations 9
DICPCG:  Solving for p, Initial residual = 0.00135749, Final residual = 5.97305e-05, No Iterations 74
time step continuity errors : sum local = 3.29292e-08, global = 2.6642e-20, cumulative = -1.55752e-18
DICPCG:  Solving for p, Initial residual = 0.00114305, Final residual = 8.84103e-07, No Iterations 106
time step continuity errors : sum local = 4.86555e-10, global = -7.11176e-20, cumulative = -1.62864e-18
ExecutionTime = 2.62 s  ClockTime = 3 s

Time = 0.13125

Courant Number mean: 0.202802 max: 0.959813
smoothSolver:  Solving for Ux, Initial residual = 0.000758631, Final residual = 9.23744e-06, No Iterations 8
smoothSolver:  Solving for Uy, Initial residual = 0.0011971, Final residual = 8.46801e-06, No Iterations 9
DICPCG:  Solving for p, Initial residual = 0.00127641, Final residual = 5.29252e-05, No Iterations 37
time step continuity errors : sum local = 3.26024e-08, global = -7.19376e-20, cumulative = -1.70057e-18
DICPCG:  Solving for p, Initial residual = 0.00108324, Final residual = 9.02639e-07, No Iterations 105
time step continuity errors : sum local = 4.97667e-10, global = 5.4728e-21, cumulative = -1.6951e-18
ExecutionTime = 2.64 s  ClockTime = 3 s

Time = 0.1325

Courant Number mean: 0.203128 max: 0.959875
smoothSolver:  Solving for Ux, Initial residual = 0.000742991, Final residual = 9.04506e-06, No Iterations 8
smoothSolver:  Solving for Uy, Initial residual = 0.00118354, Final residual = 8.36715e-06, No Iterations 9
DICPCG:  Solving for p, Initial residual = 0.00131413, Final residual = 5.50978e-05, No Iterations 74
time step continuity errors : sum local = 3.03313e-08, global = 2.7738e-20, cumulative = -1.66736e-18
DICPCG:  Solving for p, Initial residual = 0.001108, Final residual = 8.53198e-07, No Iterations 106
time step continuity errors : sum local = 4.6961e-10, global = -8.30524e-20, cumulative = -1.75041e-18
ExecutionTime = 2.67 s  ClockTime = 3 s

Time = 0.13375

Courant Number mean: 0.203449 max: 0.959936
smoothSolver:  Solving for Ux, Initial residual = 0.000734728, Final residual = 8.95016e-06, No Iterations 8
smoothSolver:  Solving for Uy, Initial residual = 0.00115841, Final residual = 8.19487e-06, No Iterations 9
DICPCG:  Solving for p, Initial residual = 0.00123737, Final residual = 4.94008e-05, No Iterations 37
time step continuity errors : sum local = 3.05526e-08, global = 1.25245e-19, cumulative = -1.62517e-18
DICPCG:  Solving for p, Initial residual = 0.00104923, Final residual = 8.84581e-07, No Iterations 105
time step continuity errors : sum local = 4.87775e-10, global = -6.91729e-20, cumulative = -1.69434e-18
ExecutionTime = 2.69 s  ClockTime = 3 s

Time = 0.135

Courant Number mean: 0.203765 max: 0.959995
smoothSolver:  Solving for Ux, Initial residual = 0.000719901, Final residual = 8.76777e-06, No Iterations 8
smoothSolver:  Solving for Uy, Initial residual = 0.0011454, Final residual = 8.09817e-06, No Iterations 9
DICPCG:  Solving for p, Initial residual = 0.00126649, Final residual = 5.39086e-05, No Iterations 74
time step continuity errors : sum local = 2.97177e-08, global = 1.25872e-19, cumulative = -1.56847e-18
DICPCG:  Solving for p, Initial residual = 0.00106702, Final residual = 8.28745e-07, No Iterations 106
time step continuity errors : sum local = 4.56201e-10, global = 1.21309e-20, cumulative = -1.55634e-18
ExecutionTime = 2.71 s  ClockTime = 3 s

Time = 0.13625

Courant Number mean: 0.204077 max: 0.960053
smoothSolver:  Solving for Ux, Initial residual = 0.000711972, Final residual = 8.67669e-06, No Iterations 8
smoothSolver:  Solving for Uy, Initial residual = 0.0011214, Final residual = 7.93372e-06, No Iterations 9
DICPCG:  Solving for p, Initial residual = 0.00119367, Final residual = 4.78864e-05, No Iterations 37
[...]
DICPCG:  Solving for p, Initial residual = 1.10017e-06, Final residual = 8.83929e-07, No Iterations 1
time step continuity errors : sum local = 5.39079e-10, global = -1.17939e-19, cumulative = -1.5926e-18
ExecutionTime = 14.14 s  ClockTime = 16 s

Time = 1.4675

Courant Number mean: 0.226236 max: 0.963181
smoothSolver:  Solving for Ux, Initial residual = 8.34502e-07, Final residual = 8.34502e-07, No Iterations 0
smoothSolver:  Solving for Uy, Initial residual = 1.25068e-06, Final residual = 1.25068e-06, No Iterations 0
DICPCG:  Solving for p, Initial residual = 1.12112e-06, Final residual = 9.24582e-07, No Iterations 1
time step continuity errors : sum local = 5.61945e-10, global = 2.15508e-19, cumulative = -1.37709e-18
DICPCG:  Solving for p, Initial residual = 1.17155e-06, Final residual = 9.61216e-07, No Iterations 1
time step continuity errors : sum local = 5.82662e-10, global = 8.02187e-21, cumulative = -1.36907e-18
ExecutionTime = 14.14 s  ClockTime = 16 s

Time = 1.46875

Courant Number mean: 0.226236 max: 0.963181
smoothSolver:  Solving for Ux, Initial residual = 8.31948e-07, Final residual = 8.31948e-07, No Iterations 0
smoothSolver:  Solving for Uy, Initial residual = 1.24711e-06, Final residual = 1.24711e-06, No Iterations 0
DICPCG:  Solving for p, Initial residual = 1.24491e-06, Final residual = 9.15469e-07, No Iterations 3
time step continuity errors : sum local = 5.66012e-10, global = -1.17005e-19, cumulative = -1.48607e-18
DICPCG:  Solving for p, Initial residual = 1.62007e-06, Final residual = 8.68959e-07, No Iterations 6
time step continuity errors : sum local = 5.39985e-10, global = 1.43139e-19, cumulative = -1.34294e-18
ExecutionTime = 14.15 s  ClockTime = 16 s

Time = 1.47

Courant Number mean: 0.226236 max: 0.963181
smoothSolver:  Solving for Ux, Initial residual = 8.19945e-07, Final residual = 8.19945e-07, No Iterations 0
smoothSolver:  Solving for Uy, Initial residual = 1.25711e-06, Final residual = 1.25711e-06, No Iterations 0
DICPCG:  Solving for p, Initial residual = 1.67474e-06, Final residual = 7.57522e-07, No Iterations 4
time step continuity errors : sum local = 4.79089e-10, global = 1.18367e-19, cumulative = -1.22457e-18
DICPCG:  Solving for p, Initial residual = 1.31721e-06, Final residual = 6.74608e-07, No Iterations 2
time step continuity errors : sum local = 4.37321e-10, global = -7.76813e-20, cumulative = -1.30225e-18
ExecutionTime = 14.15 s  ClockTime = 16 s

Time = 1.47125

Courant Number mean: 0.226237 max: 0.963181
smoothSolver:  Solving for Ux, Initial residual = 8.15984e-07, Final residual = 8.15984e-07, No Iterations 0
smoothSolver:  Solving for Uy, Initial residual = 1.25071e-06, Final residual = 1.25071e-06, No Iterations 0
DICPCG:  Solving for p, Initial residual = 1.30438e-06, Final residual = 7.74128e-07, No Iterations 1
time step continuity errors : sum local = 4.91815e-10, global = 9.78689e-21, cumulative = -1.29246e-18
DICPCG:  Solving for p, Initial residual = 1.07234e-06, Final residual = 7.51018e-07, No Iterations 1
time step continuity errors : sum local = 4.80028e-10, global = 1.45467e-19, cumulative = -1.147e-18
ExecutionTime = 14.15 s  ClockTime = 16 s

Time = 1.4725

Courant Number mean: 0.226237 max: 0.963181
smoothSolver:  Solving for Ux, Initial residual = 8.14077e-07, Final residual = 8.14077e-07, No Iterations 0
smoothSolver:  Solving for Uy, Initial residual = 1.246e-06, Final residual = 1.246e-06, No Iterations 0
DICPCG:  Solving for p, Initial residual = 9.63518e-07, Final residual = 9.63518e-07, No Iterations 0
time step continuity errors : sum local = 5.97661e-10, global = -2.39094e-19, cumulative = -1.38609e-18
DICPCG:  Solving for p, Initial residual = 1.12263e-06, Final residual = 9.91057e-07, No Iterations 1
time step continuity errors : sum local = 6.12985e-10, global = -1.39011e-19, cumulative = -1.5251e-18
ExecutionTime = 14.16 s  ClockTime = 16 s

Time = 1.47375

Courant Number mean: 0.226237 max: 0.963181
smoothSolver:  Solving for Ux, Initial residual = 8.12223e-07, Final residual = 8.12223e-07, No Iterations 0
smoothSolver:  Solving for Uy, Initial residual = 1.24171e-06, Final residual = 1.24171e-06, No Iterations 0
DICPCG:  Solving for p, Initial residual = 1.33367e-06, Final residual = 7.21392e-07, No Iterations 8
time step continuity errors : sum local = 4.52669e-10, global = 3.34243e-19, cumulative = -1.19086e-18
DICPCG:  Solving for p, Initial residual = 1.36323e-06, Final residual = 9.39221e-07, No Iterations 5
time step continuity errors : sum local = 5.68415e-10, global = -1.51099e-19, cumulative = -1.34196e-18
ExecutionTime = 14.16 s  ClockTime = 16 s

Time = 1.475

Courant Number mean: 0.226237 max: 0.963181
smoothSolver:  Solving for Ux, Initial residual = 8.26315e-07, Final residual = 8.26315e-07, No Iterations 0
smoothSolver:  Solving for Uy, Initial residual = 1.21842e-06, Final residual = 1.21842e-06, No Iterations 0
DICPCG:  Solving for p, Initial residual = 1.66213e-06, Final residual = 8.97729e-07, No Iterations 3
time step continuity errors : sum local = 5.40439e-10, global = 2.08636e-19, cumulative = -1.13332e-18
DICPCG:  Solving for p, Initial residual = 1.61113e-06, Final residual = 9.88343e-07, No Iterations 2
time step continuity errors : sum local = 5.97844e-10, global = 1.88752e-20, cumulative = -1.11445e-18
ExecutionTime = 14.18 s  ClockTime = 16 s

Time = 1.47625

Courant Number mean: 0.226237 max: 0.963181
smoothSolver:  Solving for Ux, Initial residual = 8.21695e-07, Final residual = 8.21695e-07, No Iterations 0
smoothSolver:  Solving for Uy, Initial residual = 1.21393e-06, Final residual = 1.21393e-06, No Iterations 0
DICPCG:  Solving for p, Initial residual = 1.78399e-06, Final residual = 9.30093e-07, No Iterations 2
time step continuity errors : sum local = 5.62727e-10, global = -1.57169e-20, cumulative = -1.13016e-18
DICPCG:  Solving for p, Initial residual = 1.52037e-06, Final residual = 9.21624e-07, No Iterations 1
time step continuity errors : sum local = 5.58825e-10, global = -1.31784e-19, cumulative = -1.26195e-18
ExecutionTime = 14.18 s  ClockTime = 16 s

Time = 1.4775

Courant Number mean: 0.226237 max: 0.963181
smoothSolver:  Solving for Ux, Initial residual = 8.16934e-07, Final residual = 8.16934e-07, No Iterations 0
smoothSolver:  Solving for Uy, Initial residual = 1.2102e-06, Final residual = 1.2102e-06, No Iterations 0
DICPCG:  Solving for p, Initial residual = 1.32305e-06, Final residual = 8.40093e-07, No Iterations 1
time step continuity errors : sum local = 5.14153e-10, global = 4.84267e-20, cumulative = -1.21352e-18
DICPCG:  Solving for p, Initial residual = 9.94013e-07, Final residual = 9.94013e-07, No Iterations 0
time step continuity errors : sum local = 5.99355e-10, global = -1.92719e-19, cumulative = -1.40624e-18
ExecutionTime = 14.19 s  ClockTime = 16 s

Time = 1.47875

Courant Number mean: 0.226237 max: 0.963181
smoothSolver:  Solving for Ux, Initial residual = 8.14536e-07, Final residual = 8.14536e-07, No Iterations 0
smoothSolver:  Solving for Uy, Initial residual = 1.20584e-06, Final residual = 1.20584e-06, No Iterations 0
DICPCG:  Solving for p, Initial residual = 1.22667e-06, Final residual = 9.04157e-07, No Iterations 5
time step continuity errors : sum local = 5.49626e-10, global = 5.82041e-20, cumulative = -1.34803e-18
DICPCG:  Solving for p, Initial residual = 1.57234e-06, Final residual = 8.41792e-07, No Iterations 4
time step continuity errors : sum local = 5.22079e-10, global = 6.69735e-20, cumulative = -1.28106e-18
ExecutionTime = 14.19 s  ClockTime = 16 s

Time = 1.48

Courant Number mean: 0.226237 max: 0.963181
smoothSolver:  Solving for Ux, Initial residual = 7.89012e-07, Final residual = 7.89012e-07, No Iterations 0
smoothSolver:  Solving for Uy, Initial residual = 1.23502e-06, Final residual = 1.23502e-06, No Iterations 0
DICPCG:  Solving for p, Initial residual = 1.68549e-06, Final residual = 8.95203e-07, No Iterations 4
time step continuity errors : sum local = 5.48429e-10, global = 6.19416e-20, cumulative = -1.21912e-18
DICPCG:  Solving for p, Initial residual = 1.51933e-06, Final residual = 7.85731e-07, No Iterations 3
time step continuity errors : sum local = 4.90212e-10, global = 1.71742e-19, cumulative = -1.04738e-18
ExecutionTime = 14.2 s  ClockTime = 16 s

Time = 1.48125

Courant Number mean: 0.226237 max: 0.963181
smoothSolver:  Solving for Ux, Initial residual = 7.87421e-07, Final residual = 7.87421e-07, No Iterations 0
smoothSolver:  Solving for Uy, Initial residual = 1.23279e-06, Final residual = 1.23279e-06, No Iterations 0
DICPCG:  Solving for p, Initial residual = 1.45906e-06, Final residual = 9.14888e-07, No Iterations 3
time step continuity errors : sum local = 5.63041e-10, global = -3.9082e-20, cumulative = -1.08646e-18
DICPCG:  Solving for p, Initial residual = 1.40374e-06, Final residual = 9.14549e-07, No Iterations 2
time step continuity errors : sum local = 5.62522e-10, global = -2.88495e-19, cumulative = -1.37495e-18
ExecutionTime = 14.2 s  ClockTime = 16 s

Time = 1.4825

Courant Number mean: 0.226237 max: 0.963181
smoothSolver:  Solving for Ux, Initial residual = 7.8721e-07, Final residual = 7.8721e-07, No Iterations 0
smoothSolver:  Solving for Uy, Initial residual = 1.22522e-06, Final residual = 1.22522e-06, No Iterations 0
DICPCG:  Solving for p, Initial residual = 1.70154e-06, Final residual = 9.10075e-07, No Iterations 1
time step continuity errors : sum local = 5.6039e-10, global = -1.92686e-20, cumulative = -1.39422e-18
DICPCG:  Solving for p, Initial residual = 1.19373e-06, Final residual = 7.86013e-07, No Iterations 1
time step continuity errors : sum local = 4.92234e-10, global = -1.44056e-19, cumulative = -1.53828e-18
ExecutionTime = 14.21 s  ClockTime = 16 s

Time = 1.48375

Courant Number mean: 0.226237 max: 0.963181
smoothSolver:  Solving for Ux, Initial residual = 7.85903e-07, Final residual = 7.85903e-07, No Iterations 0
smoothSolver:  Solving for Uy, Initial residual = 1.21943e-06, Final residual = 1.21943e-06, No Iterations 0
DICPCG:  Solving for p, Initial residual = 1.04364e-06, Final residual = 9.29619e-07, No Iterations 1
time step continuity errors : sum local = 5.71891e-10, global = 3.17495e-19, cumulative = -1.22078e-18
DICPCG:  Solving for p, Initial residual = 1.13554e-06, Final residual = 9.56246e-07, No Iterations 1
time step continuity errors : sum local = 5.86549e-10, global = 9.53783e-20, cumulative = -1.12541e-18
ExecutionTime = 14.21 s  ClockTime = 16 s

Time = 1.485

Courant Number mean: 0.226238 max: 0.963181
smoothSolver:  Solving for Ux, Initial residual = 7.84654e-07, Final residual = 7.84654e-07, No Iterations 0
smoothSolver:  Solving for Uy, Initial residual = 1.21308e-06, Final residual = 1.21308e-06, No Iterations 0
DICPCG:  Solving for p, Initial residual = 1.18206e-06, Final residual = 9.91161e-07, No Iterations 5
time step continuity errors : sum local = 6.01566e-10, global = -2.24037e-20, cumulative = -1.14781e-18
DICPCG:  Solving for p, Initial residual = 1.81179e-06, Final residual = 9.81454e-07, No Iterations 5
time step continuity errors : sum local = 5.95273e-10, global = -9.41107e-20, cumulative = -1.24192e-18
ExecutionTime = 14.22 s  ClockTime = 16 s

Time = 1.48625

Courant Number mean: 0.226238 max: 0.963181
smoothSolver:  Solving for Ux, Initial residual = 8.16283e-07, Final residual = 8.16283e-07, No Iterations 0
smoothSolver:  Solving for Uy, Initial residual = 1.16662e-06, Final residual = 1.16662e-06, No Iterations 0
DICPCG:  Solving for p, Initial residual = 1.76787e-06, Final residual = 8.49437e-07, No Iterations 3
time step continuity errors : sum local = 5.2328e-10, global = -9.99922e-20, cumulative = -1.34191e-18
DICPCG:  Solving for p, Initial residual = 1.533e-06, Final residual = 9.94759e-07, No Iterations 3
time step continuity errors : sum local = 6.02401e-10, global = -2.55587e-19, cumulative = -1.5975e-18
ExecutionTime = 14.22 s  ClockTime = 16 s

Time = 1.4875

Courant Number mean: 0.226238 max: 0.963181
smoothSolver:  Solving for Ux, Initial residual = 8.08236e-07, Final residual = 8.08236e-07, No Iterations 0
smoothSolver:  Solving for Uy, Initial residual = 1.1578e-06, Final residual = 1.1578e-06, No Iterations 0
DICPCG:  Solving for p, Initial residual = 1.7157e-06, Final residual = 8.37066e-07, No Iterations 7
time step continuity errors : sum local = 5.17546e-10, global = -7.43622e-21, cumulative = -1.60494e-18
DICPCG:  Solving for p, Initial residual = 1.46872e-06, Final residual = 9.79624e-07, No Iterations 4
time step continuity errors : sum local = 5.96423e-10, global = -8.98283e-20, cumulative = -1.69476e-18
ExecutionTime = 14.22 s  ClockTime = 16 s

Time = 1.48875

Courant Number mean: 0.226238 max: 0.963181
smoothSolver:  Solving for Ux, Initial residual = 7.80699e-07, Final residual = 7.80699e-07, No Iterations 0
smoothSolver:  Solving for Uy, Initial residual = 1.19013e-06, Final residual = 1.19013e-06, No Iterations 0
DICPCG:  Solving for p, Initial residual = 1.77221e-06, Final residual = 9.34585e-07, No Iterations 8
time step continuity errors : sum local = 5.72742e-10, global = 1.35832e-19, cumulative = -1.55893e-18
DICPCG:  Solving for p, Initial residual = 1.53932e-06, Final residual = 9.5874e-07, No Iterations 3
time step continuity errors : sum local = 5.88156e-10, global = -1.33793e-19, cumulative = -1.69273e-18
ExecutionTime = 14.23 s  ClockTime = 16 s

Time = 1.49

Courant Number mean: 0.226238 max: 0.963181
smoothSolver:  Solving for Ux, Initial residual = 7.75459e-07, Final residual = 7.75459e-07, No Iterations 0
smoothSolver:  Solving for Uy, Initial residual = 1.19579e-06, Final residual = 1.19579e-06, No Iterations 0
DICPCG:  Solving for p, Initial residual = 1.70311e-06, Final residual = 8.01687e-07, No Iterations 2
time step continuity errors : sum local = 4.99751e-10, global = 2.94488e-20, cumulative = -1.66328e-18
DICPCG:  Solving for p, Initial residual = 1.43258e-06, Final residual = 9.30993e-07, No Iterations 5
time step continuity errors : sum local = 5.69826e-10, global = 9.953e-20, cumulative = -1.56375e-18
ExecutionTime = 14.23 s  ClockTime = 16 s

Time = 1.49125

Courant Number mean: 0.226238 max: 0.963181
smoothSolver:  Solving for Ux, Initial residual = 7.70942e-07, Final residual = 7.70942e-07, No Iterations 0
smoothSolver:  Solving for Uy, Initial residual = 1.17887e-06, Final residual = 1.17887e-06, No Iterations 0
DICPCG:  Solving for p, Initial residual = 1.54353e-06, Final residual = 9.87051e-07, No Iterations 2
time step continuity errors : sum local = 6.02443e-10, global = 3.35388e-19, cumulative = -1.22836e-18
DICPCG:  Solving for p, Initial residual = 1.74003e-06, Final residual = 8.54817e-07, No Iterations 1
time step continuity errors : sum local = 5.27569e-10, global = 3.23279e-21, cumulative = -1.22513e-18
ExecutionTime = 14.24 s  ClockTime = 16 s

Time = 1.4925

Courant Number mean: 0.226238 max: 0.963181
smoothSolver:  Solving for Ux, Initial residual = 7.70333e-07, Final residual = 7.70333e-07, No Iterations 0
smoothSolver:  Solving for Uy, Initial residual = 1.17357e-06, Final residual = 1.17357e-06, No Iterations 0
DICPCG:  Solving for p, Initial residual = 1.38657e-06, Final residual = 9.96214e-07, No Iterations 1
time step continuity errors : sum local = 6.06245e-10, global = -3.17514e-19, cumulative = -1.54264e-18
DICPCG:  Solving for p, Initial residual = 1.2889e-06, Final residual = 5.35187e-07, No Iterations 5
time step continuity errors : sum local = 3.47835e-10, global = -9.58862e-20, cumulative = -1.63852e-18
ExecutionTime = 14.24 s  ClockTime = 16 s

Time = 1.49375

Courant Number mean: 0.226238 max: 0.963181
smoothSolver:  Solving for Ux, Initial residual = 7.90573e-07, Final residual = 7.90573e-07, No Iterations 0
smoothSolver:  Solving for Uy, Initial residual = 1.17983e-06, Final residual = 1.17983e-06, No Iterations 0
DICPCG:  Solving for p, Initial residual = 1.21076e-06, Final residual = 9.20594e-07, No Iterations 4
time step continuity errors : sum local = 5.62393e-10, global = -1.38405e-19, cumulative = -1.77693e-18
DICPCG:  Solving for p, Initial residual = 1.57091e-06, Final residual = 8.15829e-07, No Iterations 3
time step continuity errors : sum local = 5.01112e-10, global = 1.06229e-19, cumulative = -1.6707e-18
ExecutionTime = 14.24 s  ClockTime = 16 s

Time = 1.495

Courant Number mean: 0.226238 max: 0.963181
smoothSolver:  Solving for Ux, Initial residual = 7.76328e-07, Final residual = 7.76328e-07, No Iterations 0
smoothSolver:  Solving for Uy, Initial residual = 1.15739e-06, Final residual = 1.15739e-06, No Iterations 0
DICPCG:  Solving for p, Initial residual = 1.52476e-06, Final residual = 8.49494e-07, No Iterations 2
time step continuity errors : sum local = 5.20079e-10, global = -3.22659e-19, cumulative = -1.99336e-18
DICPCG:  Solving for p, Initial residual = 1.55173e-06, Final residual = 7.56006e-07, No Iterations 1
time step continuity errors : sum local = 4.68181e-10, global = 1.50161e-20, cumulative = -1.97834e-18
ExecutionTime = 14.24 s  ClockTime = 16 s

Time = 1.49625

Courant Number mean: 0.226238 max: 0.963181
smoothSolver:  Solving for Ux, Initial residual = 7.73655e-07, Final residual = 7.73655e-07, No Iterations 0
smoothSolver:  Solving for Uy, Initial residual = 1.15284e-06, Final residual = 1.15284e-06, No Iterations 0
DICPCG:  Solving for p, Initial residual = 1.08111e-06, Final residual = 6.19237e-07, No Iterations 1
time step continuity errors : sum local = 3.9236e-10, global = -1.15335e-19, cumulative = -2.09368e-18
DICPCG:  Solving for p, Initial residual = 8.48902e-07, Final residual = 8.48902e-07, No Iterations 0
time step continuity errors : sum local = 5.19356e-10, global = 4.31405e-20, cumulative = -2.05054e-18
ExecutionTime = 14.25 s  ClockTime = 16 s

Time = 1.4975

Courant Number mean: 0.226238 max: 0.963181
smoothSolver:  Solving for Ux, Initial residual = 7.71611e-07, Final residual = 7.71611e-07, No Iterations 0
smoothSolver:  Solving for Uy, Initial residual = 1.14901e-06, Final residual = 1.14901e-06, No Iterations 0
DICPCG:  Solving for p, Initial residual = 1.16778e-06, Final residual = 9.30832e-07, No Iterations 1
time step continuity errors : sum local = 5.64615e-10, global = 1.19183e-19, cumulative = -1.93135e-18
DICPCG:  Solving for p, Initial residual = 1.24627e-06, Final residual = 9.27961e-07, No Iterations 1
time step continuity errors : sum local = 5.63004e-10, global = 2.05509e-20, cumulative = -1.9108e-18
ExecutionTime = 14.25 s  ClockTime = 16 s

Time = 1.49875

Courant Number mean: 0.226238 max: 0.963181
smoothSolver:  Solving for Ux, Initial residual = 7.69082e-07, Final residual = 7.69082e-07, No Iterations 0
smoothSolver:  Solving for Uy, Initial residual = 1.14579e-06, Final residual = 1.14579e-06, No Iterations 0
DICPCG:  Solving for p, Initial residual = 1.20219e-06, Final residual = 9.16668e-07, No Iterations 3
time step continuity errors : sum local = 5.58535e-10, global = -8.03541e-20, cumulative = -1.99116e-18
DICPCG:  Solving for p, Initial residual = 1.69415e-06, Final residual = 8.89489e-07, No Iterations 3
time step continuity errors : sum local = 5.44924e-10, global = -1.8558e-19, cumulative = -2.17674e-18
ExecutionTime = 14.26 s  ClockTime = 16 s

Time = 1.5

Courant Number mean: 0.226239 max: 0.963181
smoothSolver:  Solving for Ux, Initial residual = 7.57019e-07, Final residual = 7.57019e-07, No Iterations 0
smoothSolver:  Solving for Uy, Initial residual = 1.15546e-06, Final residual = 1.15546e-06, No Iterations 0
DICPCG:  Solving for p, Initial residual = 1.72824e-06, Final residual = 8.93633e-07, No Iterations 6
time step continuity errors : sum local = 5.50138e-10, global = -5.26025e-20, cumulative = -2.22934e-18
DICPCG:  Solving for p, Initial residual = 1.52576e-06, Final residual = 9.39211e-07, No Iterations 2
time step continuity errors : sum local = 5.77636e-10, global = -1.99293e-19, cumulative = -2.42863e-18
ExecutionTime = 14.27 s  ClockTime = 16 s

End

