/*---------------------------------------------------------------------------*\
  =========                 |
  \\      /  F ield         | OpenFOAM: The Open Source CFD Toolbox
   \\    /   O peration     | Website:  https://openfoam.org
    \\  /    A nd           | Version:  7
     \\/     M anipulation  |
\*---------------------------------------------------------------------------*/
Build  : 7
Exec   : icoFoam
Date   : Feb 10 2025
Time   : 15:24:37
Host   : "c202-030.frontera.tacc.utexas.edu"
PID    : 58529
I/O    : uncollated
Case   : /work2/10531/andressuniaga/frontera/COE-347-SP25/run/cavity
nProcs : 1
sigFpe : Enabling floating point exception trapping (FOAM_SIGFPE).
fileModificationChecking : Monitoring run-time modified files using timeStampMaster (fileModificationSkew 10)
allowSystemOperations : Allowing user-supplied system call operations

// * * * * * * * * * * * * * * * * * * * * * * * * * * * * * * * * * * * * * //
Create time

Create mesh for time = 0

Reading transportProperties

Reading field p

Reading field U

Reading/calculating face flux field phi


Starting time loop

Time = 0.00125

Courant Number mean: 0 max: 0
smoothSolver:  Solving for Ux, Initial residual = 1, Final residual = 3.71788e-06, No Iterations 4
smoothSolver:  Solving for Uy, Initial residual = 0, Final residual = 0, No Iterations 0
DICPCG:  Solving for p, Initial residual = 1, Final residual = 0.0439194, No Iterations 96
time step continuity errors : sum local = 3.43017e-06, global = 1.10585e-20, cumulative = 1.10585e-20
DICPCG:  Solving for p, Initial residual = 0.213262, Final residual = 8.01219e-07, No Iterations 137
time step continuity errors : sum local = 1.31568e-10, global = -8.60054e-21, cumulative = 2.45799e-21
ExecutionTime = 0.08 s  ClockTime = 0 s

Time = 0.0025

Courant Number mean: 0.00746559 max: 0.214027
smoothSolver:  Solving for Ux, Initial residual = 0.291822, Final residual = 1.86642e-06, No Iterations 4
smoothSolver:  Solving for Uy, Initial residual = 0.327009, Final residual = 3.4006e-06, No Iterations 4
DICPCG:  Solving for p, Initial residual = 0.152721, Final residual = 0.00616316, No Iterations 94
time step continuity errors : sum local = 1.01675e-06, global = -1.95512e-20, cumulative = -1.70932e-20
DICPCG:  Solving for p, Initial residual = 0.043079, Final residual = 8.4845e-07, No Iterations 124
time step continuity errors : sum local = 1.50865e-10, global = -3.32204e-20, cumulative = -5.03136e-20
ExecutionTime = 0.11 s  ClockTime = 0 s

Time = 0.00375

Courant Number mean: 0.0133374 max: 0.363418
smoothSolver:  Solving for Ux, Initial residual = 0.156917, Final residual = 1.01266e-06, No Iterations 4
smoothSolver:  Solving for Uy, Initial residual = 0.177975, Final residual = 1.86192e-06, No Iterations 4
DICPCG:  Solving for p, Initial residual = 0.114579, Final residual = 0.00551383, No Iterations 47
time step continuity errors : sum local = 1.24892e-06, global = -1.20911e-20, cumulative = -6.24046e-20
DICPCG:  Solving for p, Initial residual = 0.033331, Final residual = 9.32397e-07, No Iterations 127
time step continuity errors : sum local = 1.93326e-10, global = -3.37278e-21, cumulative = -6.57774e-20
ExecutionTime = 0.13 s  ClockTime = 0 s

Time = 0.005

Courant Number mean: 0.0181109 max: 0.469352
smoothSolver:  Solving for Ux, Initial residual = 0.101967, Final residual = 6.659e-07, No Iterations 4
smoothSolver:  Solving for Uy, Initial residual = 0.116029, Final residual = 1.22091e-06, No Iterations 4
DICPCG:  Solving for p, Initial residual = 0.0922387, Final residual = 0.00355275, No Iterations 47
time step continuity errors : sum local = 8.49505e-07, global = 6.18834e-21, cumulative = -5.95891e-20
DICPCG:  Solving for p, Initial residual = 0.0260477, Final residual = 9.14647e-07, No Iterations 126
time step continuity errors : sum local = 2.1071e-10, global = -4.13923e-20, cumulative = -1.00981e-19
ExecutionTime = 0.15 s  ClockTime = 0 s

Time = 0.00625

Courant Number mean: 0.022122 max: 0.545892
smoothSolver:  Solving for Ux, Initial residual = 0.0730617, Final residual = 8.79749e-06, No Iterations 3
smoothSolver:  Solving for Uy, Initial residual = 0.0831171, Final residual = 8.79251e-07, No Iterations 4
DICPCG:  Solving for p, Initial residual = 0.0729837, Final residual = 0.00360837, No Iterations 46
time step continuity errors : sum local = 9.463e-07, global = -2.62691e-20, cumulative = -1.2725e-19
DICPCG:  Solving for p, Initial residual = 0.021464, Final residual = 8.75795e-07, No Iterations 125
time step continuity errors : sum local = 2.21322e-10, global = -2.48405e-20, cumulative = -1.52091e-19
ExecutionTime = 0.17 s  ClockTime = 1 s

Time = 0.0075

Courant Number mean: 0.0255591 max: 0.602312
smoothSolver:  Solving for Ux, Initial residual = 0.0558373, Final residual = 6.84451e-06, No Iterations 3
smoothSolver:  Solving for Uy, Initial residual = 0.0635346, Final residual = 6.74943e-07, No Iterations 4
DICPCG:  Solving for p, Initial residual = 0.0611104, Final residual = 0.00257785, No Iterations 46
time step continuity errors : sum local = 7.26712e-07, global = -2.22854e-20, cumulative = -1.74376e-19
DICPCG:  Solving for p, Initial residual = 0.0173146, Final residual = 8.07243e-07, No Iterations 124
time step continuity errors : sum local = 2.20369e-10, global = 8.35494e-20, cumulative = -9.08271e-20
ExecutionTime = 0.19 s  ClockTime = 1 s

Time = 0.00875

Courant Number mean: 0.0285563 max: 0.644794
smoothSolver:  Solving for Ux, Initial residual = 0.0447229, Final residual = 5.64661e-06, No Iterations 3
smoothSolver:  Solving for Uy, Initial residual = 0.0508243, Final residual = 9.4274e-06, No Iterations 3
DICPCG:  Solving for p, Initial residual = 0.0464501, Final residual = 0.00192015, No Iterations 46
time step continuity errors : sum local = 5.81176e-07, global = -3.89389e-20, cumulative = -1.29766e-19
DICPCG:  Solving for p, Initial residual = 0.014259, Final residual = 8.62523e-07, No Iterations 123
time step continuity errors : sum local = 2.48819e-10, global = -1.09518e-19, cumulative = -2.39284e-19
ExecutionTime = 0.21 s  ClockTime = 1 s

Time = 0.01

Courant Number mean: 0.0312042 max: 0.677471
smoothSolver:  Solving for Ux, Initial residual = 0.037056, Final residual = 4.80681e-06, No Iterations 3
smoothSolver:  Solving for Uy, Initial residual = 0.0420737, Final residual = 7.82121e-06, No Iterations 3
DICPCG:  Solving for p, Initial residual = 0.0391857, Final residual = 0.00182712, No Iterations 45
time step continuity errors : sum local = 5.71824e-07, global = 7.07679e-20, cumulative = -1.68516e-19
DICPCG:  Solving for p, Initial residual = 0.0122559, Final residual = 9.15938e-07, No Iterations 122
time step continuity errors : sum local = 2.76533e-10, global = -6.73298e-20, cumulative = -2.35846e-19
ExecutionTime = 0.23 s  ClockTime = 1 s

Time = 0.01125

Courant Number mean: 0.0335964 max: 0.703152
smoothSolver:  Solving for Ux, Initial residual = 0.0315449, Final residual = 4.18365e-06, No Iterations 3
smoothSolver:  Solving for Uy, Initial residual = 0.0357579, Final residual = 6.65658e-06, No Iterations 3
DICPCG:  Solving for p, Initial residual = 0.0340759, Final residual = 0.00145564, No Iterations 45
time step continuity errors : sum local = 4.7543e-07, global = -1.43425e-20, cumulative = -2.50188e-19
DICPCG:  Solving for p, Initial residual = 0.010809, Final residual = 9.91519e-07, No Iterations 121
time step continuity errors : sum local = 3.11346e-10, global = 2.72086e-20, cumulative = -2.2298e-19
ExecutionTime = 0.25 s  ClockTime = 1 s

Time = 0.0125

Courant Number mean: 0.0358041 max: 0.723754
smoothSolver:  Solving for Ux, Initial residual = 0.0274471, Final residual = 3.70553e-06, No Iterations 3
smoothSolver:  Solving for Uy, Initial residual = 0.0310334, Final residual = 5.77948e-06, No Iterations 3
DICPCG:  Solving for p, Initial residual = 0.0300211, Final residual = 0.00119852, No Iterations 45
time step continuity errors : sum local = 4.05553e-07, global = 1.04644e-19, cumulative = -1.18336e-19
DICPCG:  Solving for p, Initial residual = 0.00962277, Final residual = 8.64188e-07, No Iterations 121
time step continuity errors : sum local = 2.80735e-10, global = 3.07455e-20, cumulative = -8.75906e-20
ExecutionTime = 0.27 s  ClockTime = 1 s

Time = 0.01375

Courant Number mean: 0.0378475 max: 0.740609
smoothSolver:  Solving for Ux, Initial residual = 0.0242581, Final residual = 3.32347e-06, No Iterations 3
smoothSolver:  Solving for Uy, Initial residual = 0.0273891, Final residual = 5.09838e-06, No Iterations 3
DICPCG:  Solving for p, Initial residual = 0.027078, Final residual = 0.00131742, No Iterations 44
time step continuity errors : sum local = 4.52775e-07, global = -5.31341e-20, cumulative = -1.40725e-19
DICPCG:  Solving for p, Initial residual = 0.00894931, Final residual = 9.41915e-07, No Iterations 120
time step continuity errors : sum local = 3.15145e-10, global = -2.36333e-20, cumulative = -1.64358e-19
ExecutionTime = 0.29 s  ClockTime = 1 s

Time = 0.015

Courant Number mean: 0.0397464 max: 0.754651
smoothSolver:  Solving for Ux, Initial residual = 0.0217129, Final residual = 3.01309e-06, No Iterations 3
smoothSolver:  Solving for Uy, Initial residual = 0.0245181, Final residual = 4.55616e-06, No Iterations 3
DICPCG:  Solving for p, Initial residual = 0.0247426, Final residual = 0.00113976, No Iterations 44
time step continuity errors : sum local = 4.01845e-07, global = -7.44333e-21, cumulative = -1.71801e-19
DICPCG:  Solving for p, Initial residual = 0.00824072, Final residual = 8.13287e-07, No Iterations 120
time step continuity errors : sum local = 2.79019e-10, global = 1.11229e-20, cumulative = -1.60678e-19
ExecutionTime = 0.31 s  ClockTime = 1 s

Time = 0.01625

Courant Number mean: 0.0415231 max: 0.766537
smoothSolver:  Solving for Ux, Initial residual = 0.0196312, Final residual = 2.75452e-06, No Iterations 3
smoothSolver:  Solving for Uy, Initial residual = 0.0221957, Final residual = 4.11524e-06, No Iterations 3
DICPCG:  Solving for p, Initial residual = 0.02308, Final residual = 0.00113674, No Iterations 43
time step continuity errors : sum local = 4.0697e-07, global = -8.98396e-21, cumulative = -1.69662e-19
DICPCG:  Solving for p, Initial residual = 0.00773456, Final residual = 9.71534e-07, No Iterations 115
time step continuity errors : sum local = 3.40299e-10, global = 1.87542e-20, cumulative = -1.50908e-19
ExecutionTime = 0.33 s  ClockTime = 1 s

Time = 0.0175

Courant Number mean: 0.0431913 max: 0.776754
smoothSolver:  Solving for Ux, Initial residual = 0.0179306, Final residual = 2.53586e-06, No Iterations 3
smoothSolver:  Solving for Uy, Initial residual = 0.0202834, Final residual = 3.75033e-06, No Iterations 3
DICPCG:  Solving for p, Initial residual = 0.0216702, Final residual = 0.00100279, No Iterations 43
time step continuity errors : sum local = 3.65436e-07, global = 3.26155e-20, cumulative = -1.18293e-19
DICPCG:  Solving for p, Initial residual = 0.00721592, Final residual = 8.45976e-07, No Iterations 115
time step continuity errors : sum local = 3.01274e-10, global = -8.46317e-20, cumulative = -2.02924e-19
ExecutionTime = 0.35 s  ClockTime = 1 s

Time = 0.01875

Courant Number mean: 0.0447609 max: 0.785643
smoothSolver:  Solving for Ux, Initial residual = 0.0165093, Final residual = 2.34998e-06, No Iterations 3
smoothSolver:  Solving for Uy, Initial residual = 0.0186807, Final residual = 3.44319e-06, No Iterations 3
DICPCG:  Solving for p, Initial residual = 0.0203652, Final residual = 0.000888111, No Iterations 43
time step continuity errors : sum local = 3.29136e-07, global = -2.96147e-20, cumulative = -2.32539e-19
DICPCG:  Solving for p, Initial residual = 0.0068577, Final residual = 7.45598e-07, No Iterations 115
time step continuity errors : sum local = 2.70061e-10, global = -8.21399e-21, cumulative = -2.40753e-19
ExecutionTime = 0.37 s  ClockTime = 1 s

Time = 0.02

Courant Number mean: 0.0462451 max: 0.79347
smoothSolver:  Solving for Ux, Initial residual = 0.0153009, Final residual = 2.19143e-06, No Iterations 3
smoothSolver:  Solving for Uy, Initial residual = 0.0173183, Final residual = 3.1814e-06, No Iterations 3
DICPCG:  Solving for p, Initial residual = 0.0191611, Final residual = 0.000924273, No Iterations 42
time step continuity errors : sum local = 3.45978e-07, global = 2.58513e-20, cumulative = -2.14902e-19
DICPCG:  Solving for p, Initial residual = 0.0065896, Final residual = 8.99435e-07, No Iterations 114
time step continuity errors : sum local = 3.29977e-10, global = 5.33511e-20, cumulative = -1.61551e-19
ExecutionTime = 0.38 s  ClockTime = 1 s

Time = 0.02125

Courant Number mean: 0.0476712 max: 0.800428
smoothSolver:  Solving for Ux, Initial residual = 0.0142541, Final residual = 2.05349e-06, No Iterations 3
smoothSolver:  Solving for Uy, Initial residual = 0.0161503, Final residual = 2.95577e-06, No Iterations 3
DICPCG:  Solving for p, Initial residual = 0.018307, Final residual = 0.000839401, No Iterations 42
time step continuity errors : sum local = 3.18316e-07, global = -2.3417e-20, cumulative = -1.84968e-19
DICPCG:  Solving for p, Initial residual = 0.00634471, Final residual = 8.16176e-07, No Iterations 114
time step continuity errors : sum local = 3.03159e-10, global = -9.96151e-22, cumulative = -1.85964e-19
ExecutionTime = 0.4 s  ClockTime = 1 s

Time = 0.0225

Courant Number mean: 0.0490441 max: 0.806667
smoothSolver:  Solving for Ux, Initial residual = 0.0133315, Final residual = 1.93185e-06, No Iterations 3
smoothSolver:  Solving for Uy, Initial residual = 0.0151318, Final residual = 2.75929e-06, No Iterations 3
DICPCG:  Solving for p, Initial residual = 0.0174342, Final residual = 0.000769304, No Iterations 42
time step continuity errors : sum local = 2.95218e-07, global = -6.78708e-21, cumulative = -1.92751e-19
DICPCG:  Solving for p, Initial residual = 0.00605766, Final residual = 9.61543e-07, No Iterations 113
time step continuity errors : sum local = 3.61042e-10, global = 4.90038e-21, cumulative = -1.8785e-19
ExecutionTime = 0.42 s  ClockTime = 1 s

Time = 0.02375

Courant Number mean: 0.0503636 max: 0.812307
smoothSolver:  Solving for Ux, Initial residual = 0.0125117, Final residual = 1.8235e-06, No Iterations 3
smoothSolver:  Solving for Uy, Initial residual = 0.0142413, Final residual = 2.58668e-06, No Iterations 3
DICPCG:  Solving for p, Initial residual = 0.0167298, Final residual = 0.000826708, No Iterations 41
time step continuity errors : sum local = 3.19126e-07, global = -7.6974e-20, cumulative = -2.64824e-19
DICPCG:  Solving for p, Initial residual = 0.00589835, Final residual = 8.68086e-07, No Iterations 113
time step continuity errors : sum local = 3.29385e-10, global = 2.35232e-19, cumulative = -2.95925e-20
ExecutionTime = 0.44 s  ClockTime = 1 s

Time = 0.025

Courant Number mean: 0.051632 max: 0.817433
smoothSolver:  Solving for Ux, Initial residual = 0.0117933, Final residual = 1.72614e-06, No Iterations 3
smoothSolver:  Solving for Uy, Initial residual = 0.0134546, Final residual = 2.4343e-06, No Iterations 3
DICPCG:  Solving for p, Initial residual = 0.0161113, Final residual = 0.000762759, No Iterations 41
time step continuity errors : sum local = 2.9735e-07, global = 6.56445e-20, cumulative = 3.6052e-20
DICPCG:  Solving for p, Initial residual = 0.00571161, Final residual = 9.21758e-07, No Iterations 112
time step continuity errors : sum local = 3.52897e-10, global = -6.89911e-20, cumulative = -3.29391e-20
ExecutionTime = 0.49 s  ClockTime = 1 s

Time = 0.02625

Courant Number mean: 0.0528526 max: 0.82213
smoothSolver:  Solving for Ux, Initial residual = 0.0111561, Final residual = 1.63808e-06, No Iterations 3
smoothSolver:  Solving for Uy, Initial residual = 0.012755, Final residual = 2.29842e-06, No Iterations 3
DICPCG:  Solving for p, Initial residual = 0.0155584, Final residual = 0.0007081, No Iterations 41
time step continuity errors : sum local = 2.78512e-07, global = -4.97491e-20, cumulative = -8.26882e-20
DICPCG:  Solving for p, Initial residual = 0.00552269, Final residual = 8.3852e-07, No Iterations 112
time step continuity errors : sum local = 3.23805e-10, global = 1.11498e-19, cumulative = 2.88102e-20
ExecutionTime = 0.51 s  ClockTime = 1 s

Time = 0.0275

Courant Number mean: 0.0540272 max: 0.826445
smoothSolver:  Solving for Ux, Initial residual = 0.0105824, Final residual = 1.5579e-06, No Iterations 3
smoothSolver:  Solving for Uy, Initial residual = 0.0121279, Final residual = 2.17659e-06, No Iterations 3
DICPCG:  Solving for p, Initial residual = 0.015306, Final residual = 0.000661662, No Iterations 41
time step continuity errors : sum local = 2.6233e-07, global = 4.94997e-20, cumulative = 7.83099e-20
DICPCG:  Solving for p, Initial residual = 0.00533948, Final residual = 9.81587e-07, No Iterations 111
time step continuity errors : sum local = 3.81511e-10, global = -6.74777e-21, cumulative = 7.15621e-20
ExecutionTime = 0.52 s  ClockTime = 1 s

Time = 0.02875

Courant Number mean: 0.0551634 max: 0.830436
smoothSolver:  Solving for Ux, Initial residual = 0.0100624, Final residual = 1.48554e-06, No Iterations 3
smoothSolver:  Solving for Uy, Initial residual = 0.0115642, Final residual = 2.06676e-06, No Iterations 3
DICPCG:  Solving for p, Initial residual = 0.0153145, Final residual = 0.000721732, No Iterations 40
time step continuity errors : sum local = 2.86766e-07, global = -4.45482e-20, cumulative = 2.70139e-20
DICPCG:  Solving for p, Initial residual = 0.00518429, Final residual = 9.11885e-07, No Iterations 111
time step continuity errors : sum local = 3.56875e-10, global = 5.82683e-20, cumulative = 8.52822e-20
ExecutionTime = 0.54 s  ClockTime = 1 s

Time = 0.03

Courant Number mean: 0.0562582 max: 0.834138
smoothSolver:  Solving for Ux, Initial residual = 0.00959142, Final residual = 1.41993e-06, No Iterations 3
smoothSolver:  Solving for Uy, Initial residual = 0.0110577, Final residual = 1.96799e-06, No Iterations 3
DICPCG:  Solving for p, Initial residual = 0.0141848, Final residual = 0.000690371, No Iterations 40
time step continuity errors : sum local = 2.76145e-07, global = -7.55359e-20, cumulative = 9.74634e-21
DICPCG:  Solving for p, Initial residual = 0.00508981, Final residual = 8.71982e-07, No Iterations 111
time step continuity errors : sum local = 3.4391e-10, global = 1.74364e-20, cumulative = 2.71828e-20
ExecutionTime = 0.56 s  ClockTime = 1 s

Time = 0.03125

Courant Number mean: 0.057314 max: 0.837587
smoothSolver:  Solving for Ux, Initial residual = 0.00915932, Final residual = 1.3603e-06, No Iterations 3
smoothSolver:  Solving for Uy, Initial residual = 0.0105952, Final residual = 1.87783e-06, No Iterations 3
DICPCG:  Solving for p, Initial residual = 0.0137674, Final residual = 0.00065992, No Iterations 40
time step continuity errors : sum local = 2.65854e-07, global = -1.88164e-20, cumulative = 8.36633e-21
DICPCG:  Solving for p, Initial residual = 0.00495309, Final residual = 8.30658e-07, No Iterations 111
time step continuity errors : sum local = 3.30058e-10, global = -2.72619e-20, cumulative = -1.88956e-20
ExecutionTime = 0.58 s  ClockTime = 1 s

Time = 0.0325

Courant Number mean: 0.0583343 max: 0.840812
smoothSolver:  Solving for Ux, Initial residual = 0.00876165, Final residual = 1.30588e-06, No Iterations 3
smoothSolver:  Solving for Uy, Initial residual = 0.0101735, Final residual = 1.79563e-06, No Iterations 3
DICPCG:  Solving for p, Initial residual = 0.0134501, Final residual = 0.000635759, No Iterations 40
time step continuity errors : sum local = 2.57776e-07, global = -8.63434e-20, cumulative = -1.05239e-19
DICPCG:  Solving for p, Initial residual = 0.00483766, Final residual = 7.97087e-07, No Iterations 111
time step continuity errors : sum local = 3.18872e-10, global = 2.88377e-20, cumulative = -7.64013e-20
ExecutionTime = 0.6 s  ClockTime = 1 s

Time = 0.03375

Courant Number mean: 0.0593222 max: 0.843834
smoothSolver:  Solving for Ux, Initial residual = 0.00840071, Final residual = 1.25542e-06, No Iterations 3
smoothSolver:  Solving for Uy, Initial residual = 0.0097884, Final residual = 1.72033e-06, No Iterations 3
DICPCG:  Solving for p, Initial residual = 0.0131551, Final residual = 0.00061455, No Iterations 40
time step continuity errors : sum local = 2.50638e-07, global = -2.82308e-20, cumulative = -1.04632e-19
DICPCG:  Solving for p, Initial residual = 0.0047332, Final residual = 7.73511e-07, No Iterations 111
time step continuity errors : sum local = 3.11324e-10, global = 1.23946e-20, cumulative = -9.22375e-20
ExecutionTime = 0.62 s  ClockTime = 1 s

Time = 0.035

Courant Number mean: 0.0602869 max: 0.846679
smoothSolver:  Solving for Ux, Initial residual = 0.00807025, Final residual = 1.20843e-06, No Iterations 3
smoothSolver:  Solving for Uy, Initial residual = 0.00943481, Final residual = 1.65119e-06, No Iterations 3
DICPCG:  Solving for p, Initial residual = 0.0128827, Final residual = 0.000589656, No Iterations 40
time step continuity errors : sum local = 2.41766e-07, global = 1.36133e-20, cumulative = -7.86242e-20
DICPCG:  Solving for p, Initial residual = 0.00463627, Final residual = 7.52184e-07, No Iterations 111
time step continuity errors : sum local = 3.04381e-10, global = 9.08863e-21, cumulative = -6.95356e-20
ExecutionTime = 0.64 s  ClockTime = 1 s

Time = 0.03625

Courant Number mean: 0.0612323 max: 0.849361
smoothSolver:  Solving for Ux, Initial residual = 0.00776424, Final residual = 1.16448e-06, No Iterations 3
smoothSolver:  Solving for Uy, Initial residual = 0.00911069, Final residual = 1.58752e-06, No Iterations 3
DICPCG:  Solving for p, Initial residual = 0.01262, Final residual = 0.000570876, No Iterations 40
time step continuity errors : sum local = 2.35185e-07, global = 1.00034e-20, cumulative = -5.95322e-20
DICPCG:  Solving for p, Initial residual = 0.00454923, Final residual = 7.30552e-07, No Iterations 111
time step continuity errors : sum local = 2.97128e-10, global = -1.03267e-19, cumulative = -1.62799e-19
ExecutionTime = 0.66 s  ClockTime = 1 s

Time = 0.0375

Courant Number mean: 0.062154 max: 0.851898
smoothSolver:  Solving for Ux, Initial residual = 0.00747879, Final residual = 1.12314e-06, No Iterations 3
smoothSolver:  Solving for Uy, Initial residual = 0.00881177, Final residual = 1.5288e-06, No Iterations 3
DICPCG:  Solving for p, Initial residual = 0.0124173, Final residual = 0.000616741, No Iterations 35
time step continuity errors : sum local = 2.50886e-07, global = 1.05491e-20, cumulative = -1.5225e-19
DICPCG:  Solving for p, Initial residual = 0.00445768, Final residual = 7.40338e-07, No Iterations 111
time step continuity errors : sum local = 3.02703e-10, global = 9.24759e-20, cumulative = -5.9774e-20
ExecutionTime = 0.67 s  ClockTime = 1 s

Time = 0.03875

Courant Number mean: 0.0630534 max: 0.854303
smoothSolver:  Solving for Ux, Initial residual = 0.00720844, Final residual = 1.08344e-06, No Iterations 3
smoothSolver:  Solving for Uy, Initial residual = 0.00853997, Final residual = 1.47545e-06, No Iterations 3
DICPCG:  Solving for p, Initial residual = 0.0121383, Final residual = 0.000572694, No Iterations 35
time step continuity errors : sum local = 2.35083e-07, global = -5.40747e-20, cumulative = -1.13849e-19
DICPCG:  Solving for p, Initial residual = 0.0044425, Final residual = 7.09285e-07, No Iterations 111
time step continuity errors : sum local = 2.91456e-10, global = -3.11158e-20, cumulative = -1.44965e-19
ExecutionTime = 0.69 s  ClockTime = 1 s

Time = 0.04

Courant Number mean: 0.06393 max: 0.856588
smoothSolver:  Solving for Ux, Initial residual = 0.00695896, Final residual = 1.04755e-06, No Iterations 3
smoothSolver:  Solving for Uy, Initial residual = 0.00828447, Final residual = 1.42498e-06, No Iterations 3
DICPCG:  Solving for p, Initial residual = 0.0122301, Final residual = 0.000590407, No Iterations 34
time step continuity errors : sum local = 2.43379e-07, global = -1.25525e-20, cumulative = -1.57517e-19
DICPCG:  Solving for p, Initial residual = 0.00439097, Final residual = 7.08046e-07, No Iterations 111
time step continuity errors : sum local = 2.92346e-10, global = 9.37654e-21, cumulative = -1.4814e-19
ExecutionTime = 0.71 s  ClockTime = 1 s

Time = 0.04125

Courant Number mean: 0.0647858 max: 0.858768
smoothSolver:  Solving for Ux, Initial residual = 0.00672475, Final residual = 1.0153e-06, No Iterations 3
smoothSolver:  Solving for Uy, Initial residual = 0.00804615, Final residual = 1.37803e-06, No Iterations 3
DICPCG:  Solving for p, Initial residual = 0.011699, Final residual = 0.000570785, No Iterations 34
time step continuity errors : sum local = 2.3656e-07, global = -5.04735e-20, cumulative = -1.98614e-19
DICPCG:  Solving for p, Initial residual = 0.00429976, Final residual = 6.85861e-07, No Iterations 111
time step continuity errors : sum local = 2.84532e-10, global = 9.54178e-20, cumulative = -1.03196e-19
ExecutionTime = 0.73 s  ClockTime = 1 s

Time = 0.0425

Courant Number mean: 0.0656214 max: 0.860852
smoothSolver:  Solving for Ux, Initial residual = 0.00650524, Final residual = 9.85544e-07, No Iterations 3
smoothSolver:  Solving for Uy, Initial residual = 0.00782203, Final residual = 1.33408e-06, No Iterations 3
DICPCG:  Solving for p, Initial residual = 0.011467, Final residual = 0.000549514, No Iterations 34
time step continuity errors : sum local = 2.28705e-07, global = 1.46709e-19, cumulative = 4.35131e-20
DICPCG:  Solving for p, Initial residual = 0.00421443, Final residual = 6.80208e-07, No Iterations 111
time step continuity errors : sum local = 2.83471e-10, global = -1.64424e-19, cumulative = -1.20911e-19
ExecutionTime = 0.74 s  ClockTime = 1 s

Time = 0.04375

Courant Number mean: 0.0664356 max: 0.86285
smoothSolver:  Solving for Ux, Initial residual = 0.00629951, Final residual = 9.57695e-07, No Iterations 3
smoothSolver:  Solving for Uy, Initial residual = 0.0076132, Final residual = 1.29318e-06, No Iterations 3
DICPCG:  Solving for p, Initial residual = 0.0112412, Final residual = 0.000532061, No Iterations 34
time step continuity errors : sum local = 2.22461e-07, global = 1.05667e-19, cumulative = -1.52439e-20
DICPCG:  Solving for p, Initial residual = 0.00414543, Final residual = 6.72216e-07, No Iterations 111
time step continuity errors : sum local = 2.81383e-10, global = -5.83485e-20, cumulative = -7.35924e-20
ExecutionTime = 0.76 s  ClockTime = 1 s

Time = 0.045

Courant Number mean: 0.0672299 max: 0.864995
smoothSolver:  Solving for Ux, Initial residual = 0.00610884, Final residual = 9.31544e-07, No Iterations 3
smoothSolver:  Solving for Uy, Initial residual = 0.00741867, Final residual = 1.25505e-06, No Iterations 3
DICPCG:  Solving for p, Initial residual = 0.0111423, Final residual = 0.000511631, No Iterations 34
time step continuity errors : sum local = 2.14847e-07, global = -2.79755e-20, cumulative = -1.01568e-19
DICPCG:  Solving for p, Initial residual = 0.00407659, Final residual = 6.6233e-07, No Iterations 111
time step continuity errors : sum local = 2.78452e-10, global = 1.07711e-20, cumulative = -9.07968e-20
ExecutionTime = 0.78 s  ClockTime = 1 s

Time = 0.04625

Courant Number mean: 0.0680067 max: 0.867096
smoothSolver:  Solving for Ux, Initial residual = 0.00592961, Final residual = 9.06522e-07, No Iterations 3
smoothSolver:  Solving for Uy, Initial residual = 0.0072363, Final residual = 1.21928e-06, No Iterations 3
DICPCG:  Solving for p, Initial residual = 0.0111298, Final residual = 0.000505527, No Iterations 34
time step continuity errors : sum local = 2.13071e-07, global = 1.11119e-19, cumulative = 2.03227e-20
DICPCG:  Solving for p, Initial residual = 0.00403928, Final residual = 6.59038e-07, No Iterations 111
time step continuity errors : sum local = 2.77939e-10, global = 4.47518e-20, cumulative = 6.50745e-20
ExecutionTime = 0.81 s  ClockTime = 1 s

Time = 0.0475

Courant Number mean: 0.0687653 max: 0.869115
smoothSolver:  Solving for Ux, Initial residual = 0.00576126, Final residual = 8.82544e-07, No Iterations 3
smoothSolver:  Solving for Uy, Initial residual = 0.00706605, Final residual = 1.18585e-06, No Iterations 3
DICPCG:  Solving for p, Initial residual = 0.0108474, Final residual = 0.000488776, No Iterations 34
time step continuity errors : sum local = 2.06704e-07, global = 8.41721e-21, cumulative = 7.34917e-20
DICPCG:  Solving for p, Initial residual = 0.00398139, Final residual = 6.51648e-07, No Iterations 111
time step continuity errors : sum local = 2.75733e-10, global = -7.85123e-20, cumulative = -5.02061e-21
ExecutionTime = 0.82 s  ClockTime = 1 s

Time = 0.04875

Courant Number mean: 0.069506 max: 0.871056
smoothSolver:  Solving for Ux, Initial residual = 0.00560108, Final residual = 8.59565e-07, No Iterations 3
smoothSolver:  Solving for Uy, Initial residual = 0.00690543, Final residual = 1.1543e-06, No Iterations 3
DICPCG:  Solving for p, Initial residual = 0.010703, Final residual = 0.000529292, No Iterations 33
time step continuity errors : sum local = 2.24637e-07, global = 1.2937e-19, cumulative = 1.2435e-19
DICPCG:  Solving for p, Initial residual = 0.00396554, Final residual = 9.90877e-07, No Iterations 110
time step continuity errors : sum local = 4.19541e-10, global = -1.06097e-20, cumulative = 1.1374e-19
ExecutionTime = 0.84 s  ClockTime = 1 s

Time = 0.05

Courant Number mean: 0.0702295 max: 0.872922
smoothSolver:  Solving for Ux, Initial residual = 0.00544881, Final residual = 8.37519e-07, No Iterations 3
smoothSolver:  Solving for Uy, Initial residual = 0.00675488, Final residual = 1.12468e-06, No Iterations 3
DICPCG:  Solving for p, Initial residual = 0.010557, Final residual = 0.000514204, No Iterations 33
time step continuity errors : sum local = 2.18963e-07, global = -2.20845e-20, cumulative = 9.16557e-20
DICPCG:  Solving for p, Initial residual = 0.00393921, Final residual = 9.78277e-07, No Iterations 110
time step continuity errors : sum local = 4.15437e-10, global = -1.64499e-19, cumulative = -7.2843e-20
ExecutionTime = 0.88 s  ClockTime = 1 s

Time = 0.05125

Courant Number mean: 0.0709364 max: 0.874721
smoothSolver:  Solving for Ux, Initial residual = 0.00530566, Final residual = 8.16585e-07, No Iterations 3
smoothSolver:  Solving for Uy, Initial residual = 0.00661298, Final residual = 1.09666e-06, No Iterations 3
DICPCG:  Solving for p, Initial residual = 0.010408, Final residual = 0.000502748, No Iterations 33
time step continuity errors : sum local = 2.14705e-07, global = 3.05934e-20, cumulative = -4.22496e-20
DICPCG:  Solving for p, Initial residual = 0.00388392, Final residual = 9.68107e-07, No Iterations 110
time step continuity errors : sum local = 4.12269e-10, global = 5.22041e-20, cumulative = 9.95453e-21
ExecutionTime = 0.89 s  ClockTime = 1 s

Time = 0.0525

Courant Number mean: 0.0716275 max: 0.876453
smoothSolver:  Solving for Ux, Initial residual = 0.00516949, Final residual = 7.96654e-07, No Iterations 3
smoothSolver:  Solving for Uy, Initial residual = 0.00647829, Final residual = 1.07027e-06, No Iterations 3
DICPCG:  Solving for p, Initial residual = 0.0102594, Final residual = 0.000492375, No Iterations 33
time step continuity errors : sum local = 2.10885e-07, global = -4.08105e-20, cumulative = -3.0856e-20
DICPCG:  Solving for p, Initial residual = 0.00385171, Final residual = 9.49788e-07, No Iterations 110
time step continuity errors : sum local = 4.05575e-10, global = 8.67183e-20, cumulative = 5.58623e-20
ExecutionTime = 0.91 s  ClockTime = 1 s

Time = 0.05375

Courant Number mean: 0.0723065 max: 0.878124
smoothSolver:  Solving for Ux, Initial residual = 0.00503929, Final residual = 7.77705e-07, No Iterations 3
smoothSolver:  Solving for Uy, Initial residual = 0.00635172, Final residual = 1.04528e-06, No Iterations 3
DICPCG:  Solving for p, Initial residual = 0.0101186, Final residual = 0.000481517, No Iterations 33
time step continuity errors : sum local = 2.06841e-07, global = 3.979e-20, cumulative = 9.56523e-20
DICPCG:  Solving for p, Initial residual = 0.00380297, Final residual = 9.41026e-07, No Iterations 110
time step continuity errors : sum local = 4.03031e-10, global = 1.09063e-19, cumulative = 2.04715e-19
ExecutionTime = 0.93 s  ClockTime = 1 s

Time = 0.055

Courant Number mean: 0.0729792 max: 0.879736
smoothSolver:  Solving for Ux, Initial residual = 0.00491555, Final residual = 7.59493e-07, No Iterations 3
smoothSolver:  Solving for Uy, Initial residual = 0.0062315, Final residual = 1.02163e-06, No Iterations 3
DICPCG:  Solving for p, Initial residual = 0.00999675, Final residual = 0.00046926, No Iterations 33
time step continuity errors : sum local = 2.02192e-07, global = -1.53752e-20, cumulative = 1.8934e-19
DICPCG:  Solving for p, Initial residual = 0.00374512, Final residual = 9.24551e-07, No Iterations 110
time step continuity errors : sum local = 3.97188e-10, global = -2.62984e-20, cumulative = 1.63041e-19
ExecutionTime = 0.95 s  ClockTime = 1 s

Time = 0.05625

Courant Number mean: 0.0736419 max: 0.881292
smoothSolver:  Solving for Ux, Initial residual = 0.00479865, Final residual = 7.41837e-07, No Iterations 3
smoothSolver:  Solving for Uy, Initial residual = 0.00611697, Final residual = 9.99165e-07, No Iterations 3
DICPCG:  Solving for p, Initial residual = 0.00990355, Final residual = 0.000461771, No Iterations 33
time step continuity errors : sum local = 1.99559e-07, global = 2.87297e-20, cumulative = 1.91771e-19
DICPCG:  Solving for p, Initial residual = 0.00370358, Final residual = 9.13452e-07, No Iterations 110
time step continuity errors : sum local = 3.93501e-10, global = 5.47038e-20, cumulative = 2.46475e-19
ExecutionTime = 0.96 s  ClockTime = 1 s

Time = 0.0575

Courant Number mean: 0.0742934 max: 0.882794
smoothSolver:  Solving for Ux, Initial residual = 0.0046871, Final residual = 7.24871e-07, No Iterations 3
smoothSolver:  Solving for Uy, Initial residual = 0.00600871, Final residual = 9.77981e-07, No Iterations 3
DICPCG:  Solving for p, Initial residual = 0.00979445, Final residual = 0.000451802, No Iterations 33
time step continuity errors : sum local = 1.95794e-07, global = -1.38384e-19, cumulative = 1.08091e-19
DICPCG:  Solving for p, Initial residual = 0.00365469, Final residual = 9.11543e-07, No Iterations 110
time step continuity errors : sum local = 3.93701e-10, global = 1.32937e-19, cumulative = 2.41028e-19
ExecutionTime = 0.98 s  ClockTime = 1 s

Time = 0.05875

Courant Number mean: 0.0749336 max: 0.884245
smoothSolver:  Solving for Ux, Initial residual = 0.00458021, Final residual = 7.085e-07, No Iterations 3
smoothSolver:  Solving for Uy, Initial residual = 0.00590562, Final residual = 9.57807e-07, No Iterations 3
DICPCG:  Solving for p, Initial residual = 0.00986407, Final residual = 0.000486773, No Iterations 32
time step continuity errors : sum local = 2.11525e-07, global = 4.95598e-20, cumulative = 2.90588e-19
DICPCG:  Solving for p, Initial residual = 0.00360254, Final residual = 9.3016e-07, No Iterations 110
time step continuity errors : sum local = 4.02804e-10, global = -2.65626e-20, cumulative = 2.64025e-19
ExecutionTime = 1 s  ClockTime = 1 s

Time = 0.06

Courant Number mean: 0.0755646 max: 0.885647
smoothSolver:  Solving for Ux, Initial residual = 0.00447828, Final residual = 6.92672e-07, No Iterations 3
smoothSolver:  Solving for Uy, Initial residual = 0.00580641, Final residual = 9.38633e-07, No Iterations 3
DICPCG:  Solving for p, Initial residual = 0.00985251, Final residual = 0.000478854, No Iterations 32
time step continuity errors : sum local = 2.08623e-07, global = 1.19683e-19, cumulative = 3.83708e-19
DICPCG:  Solving for p, Initial residual = 0.00360852, Final residual = 9.32269e-07, No Iterations 110
time step continuity errors : sum local = 4.04648e-10, global = -9.62449e-20, cumulative = 2.87463e-19
ExecutionTime = 1.02 s  ClockTime = 1 s

Time = 0.06125

Courant Number mean: 0.0761855 max: 0.887001
smoothSolver:  Solving for Ux, Initial residual = 0.00438223, Final residual = 6.77577e-07, No Iterations 3
smoothSolver:  Solving for Uy, Initial residual = 0.00571314, Final residual = 9.20499e-07, No Iterations 3
DICPCG:  Solving for p, Initial residual = 0.00950567, Final residual = 0.000469524, No Iterations 32
time step continuity errors : sum local = 2.05045e-07, global = -2.90263e-20, cumulative = 2.58437e-19
DICPCG:  Solving for p, Initial residual = 0.00356537, Final residual = 9.37653e-07, No Iterations 110
time step continuity errors : sum local = 4.0797e-10, global = -4.41732e-20, cumulative = 2.14263e-19
ExecutionTime = 1.04 s  ClockTime = 1 s

Time = 0.0625

Courant Number mean: 0.0767975 max: 0.888309
smoothSolver:  Solving for Ux, Initial residual = 0.00428982, Final residual = 6.63191e-07, No Iterations 3
smoothSolver:  Solving for Uy, Initial residual = 0.00562358, Final residual = 9.03122e-07, No Iterations 3
DICPCG:  Solving for p, Initial residual = 0.00939853, Final residual = 0.000463889, No Iterations 32
time step continuity errors : sum local = 2.03075e-07, global = 7.46493e-20, cumulative = 2.88913e-19
DICPCG:  Solving for p, Initial residual = 0.00353007, Final residual = 9.40346e-07, No Iterations 110
time step continuity errors : sum local = 4.10141e-10, global = -4.74692e-20, cumulative = 2.41443e-19
ExecutionTime = 1.05 s  ClockTime = 1 s

Time = 0.06375

Courant Number mean: 0.0774006 max: 0.889573
smoothSolver:  Solving for Ux, Initial residual = 0.0042002, Final residual = 6.49245e-07, No Iterations 3
smoothSolver:  Solving for Uy, Initial residual = 0.00553759, Final residual = 8.86536e-07, No Iterations 3
DICPCG:  Solving for p, Initial residual = 0.00928625, Final residual = 0.000458661, No Iterations 32
time step continuity errors : sum local = 2.01248e-07, global = 9.05246e-21, cumulative = 2.50496e-19
DICPCG:  Solving for p, Initial residual = 0.00349778, Final residual = 9.52419e-07, No Iterations 110
time step continuity errors : sum local = 4.16401e-10, global = -9.79584e-20, cumulative = 1.52537e-19
ExecutionTime = 1.07 s  ClockTime = 1 s

Time = 0.065

Courant Number mean: 0.077994 max: 0.890795
smoothSolver:  Solving for Ux, Initial residual = 0.00411286, Final residual = 6.35697e-07, No Iterations 3
smoothSolver:  Solving for Uy, Initial residual = 0.00545656, Final residual = 8.70707e-07, No Iterations 3
DICPCG:  Solving for p, Initial residual = 0.00919487, Final residual = 0.000454411, No Iterations 32
time step continuity errors : sum local = 1.99831e-07, global = 7.54544e-21, cumulative = 1.60083e-19
DICPCG:  Solving for p, Initial residual = 0.00346762, Final residual = 9.64127e-07, No Iterations 110
time step continuity errors : sum local = 4.2253e-10, global = 3.44249e-20, cumulative = 1.94508e-19
ExecutionTime = 1.09 s  ClockTime = 1 s

Time = 0.06625

Courant Number mean: 0.0785781 max: 0.891976
smoothSolver:  Solving for Ux, Initial residual = 0.00402933, Final residual = 6.2258e-07, No Iterations 3
smoothSolver:  Solving for Uy, Initial residual = 0.00537901, Final residual = 8.5557e-07, No Iterations 3
DICPCG:  Solving for p, Initial residual = 0.00913108, Final residual = 0.000446819, No Iterations 32
time step continuity errors : sum local = 1.96912e-07, global = 3.9357e-20, cumulative = 2.33865e-19
DICPCG:  Solving for p, Initial residual = 0.00343123, Final residual = 9.74852e-07, No Iterations 110
time step continuity errors : sum local = 4.28178e-10, global = 2.26261e-19, cumulative = 4.60126e-19
ExecutionTime = 1.11 s  ClockTime = 1 s

Time = 0.0675

Courant Number mean: 0.0791553 max: 0.893118
smoothSolver:  Solving for Ux, Initial residual = 0.0039501, Final residual = 6.10047e-07, No Iterations 3
smoothSolver:  Solving for Uy, Initial residual = 0.00530407, Final residual = 8.41061e-07, No Iterations 3
DICPCG:  Solving for p, Initial residual = 0.0090871, Final residual = 0.00044113, No Iterations 32
time step continuity errors : sum local = 1.94808e-07, global = 1.30411e-20, cumulative = 4.73167e-19
DICPCG:  Solving for p, Initial residual = 0.00340245, Final residual = 9.82226e-07, No Iterations 110
time step continuity errors : sum local = 4.32423e-10, global = 5.23899e-20, cumulative = 5.25557e-19
ExecutionTime = 1.13 s  ClockTime = 2 s

Time = 0.06875

Courant Number mean: 0.0797218 max: 0.894221
smoothSolver:  Solving for Ux, Initial residual = 0.00387564, Final residual = 5.97951e-07, No Iterations 3
smoothSolver:  Solving for Uy, Initial residual = 0.00523239, Final residual = 8.27181e-07, No Iterations 3
DICPCG:  Solving for p, Initial residual = 0.00906355, Final residual = 0.00045316, No Iterations 31
time step continuity errors : sum local = 2.0055e-07, global = 5.23631e-20, cumulative = 5.7792e-19
DICPCG:  Solving for p, Initial residual = 0.00336185, Final residual = 8.24204e-07, No Iterations 111
time step continuity errors : sum local = 3.64291e-10, global = -1.15849e-19, cumulative = 4.62071e-19
ExecutionTime = 1.14 s  ClockTime = 2 s

Time = 0.07

Courant Number mean: 0.0802803 max: 0.895288
smoothSolver:  Solving for Ux, Initial residual = 0.00380431, Final residual = 5.86267e-07, No Iterations 3
smoothSolver:  Solving for Uy, Initial residual = 0.00516273, Final residual = 8.1378e-07, No Iterations 3
DICPCG:  Solving for p, Initial residual = 0.0092033, Final residual = 0.000443101, No Iterations 31
time step continuity errors : sum local = 1.9656e-07, global = -4.28596e-20, cumulative = 4.19211e-19
DICPCG:  Solving for p, Initial residual = 0.00336965, Final residual = 8.25285e-07, No Iterations 111
time step continuity errors : sum local = 3.65819e-10, global = -6.71201e-20, cumulative = 3.52091e-19
ExecutionTime = 1.16 s  ClockTime = 2 s

Time = 0.07125

Courant Number mean: 0.0808298 max: 0.896348
smoothSolver:  Solving for Ux, Initial residual = 0.00373622, Final residual = 5.75153e-07, No Iterations 3
smoothSolver:  Solving for Uy, Initial residual = 0.00509678, Final residual = 8.01043e-07, No Iterations 3
DICPCG:  Solving for p, Initial residual = 0.00890762, Final residual = 0.000436804, No Iterations 31
time step continuity errors : sum local = 1.94209e-07, global = -5.58529e-20, cumulative = 2.96238e-19
DICPCG:  Solving for p, Initial residual = 0.00332685, Final residual = 8.3446e-07, No Iterations 111
time step continuity errors : sum local = 3.70886e-10, global = 9.72102e-20, cumulative = 3.93448e-19
ExecutionTime = 1.19 s  ClockTime = 2 s

Time = 0.0725

Courant Number mean: 0.0813694 max: 0.897377
smoothSolver:  Solving for Ux, Initial residual = 0.00367006, Final residual = 5.64622e-07, No Iterations 3
smoothSolver:  Solving for Uy, Initial residual = 0.00503247, Final residual = 7.88769e-07, No Iterations 3
DICPCG:  Solving for p, Initial residual = 0.00886774, Final residual = 0.000434379, No Iterations 31
time step continuity errors : sum local = 1.93613e-07, global = 2.33691e-20, cumulative = 4.16817e-19
DICPCG:  Solving for p, Initial residual = 0.0032923, Final residual = 8.33659e-07, No Iterations 111
time step continuity errors : sum local = 3.715e-10, global = 9.56065e-20, cumulative = 5.12424e-19
ExecutionTime = 1.2 s  ClockTime = 2 s

Time = 0.07375

Courant Number mean: 0.0819014 max: 0.898375
smoothSolver:  Solving for Ux, Initial residual = 0.00360645, Final residual = 5.54397e-07, No Iterations 3
smoothSolver:  Solving for Uy, Initial residual = 0.00496939, Final residual = 7.7695e-07, No Iterations 3
DICPCG:  Solving for p, Initial residual = 0.00901646, Final residual = 0.000448451, No Iterations 30
time step continuity errors : sum local = 2.00372e-07, global = -1.31651e-19, cumulative = 3.80773e-19
DICPCG:  Solving for p, Initial residual = 0.0032669, Final residual = 8.69386e-07, No Iterations 111
time step continuity errors : sum local = 3.88488e-10, global = 2.76826e-20, cumulative = 4.08456e-19
ExecutionTime = 1.22 s  ClockTime = 2 s

Time = 0.075

Courant Number mean: 0.0824257 max: 0.899342
smoothSolver:  Solving for Ux, Initial residual = 0.00354359, Final residual = 5.44492e-07, No Iterations 3
smoothSolver:  Solving for Uy, Initial residual = 0.00490895, Final residual = 7.65667e-07, No Iterations 3
DICPCG:  Solving for p, Initial residual = 0.00850945, Final residual = 0.000409629, No Iterations 32
time step continuity errors : sum local = 1.83464e-07, global = 1.15145e-19, cumulative = 5.236e-19
DICPCG:  Solving for p, Initial residual = 0.00319196, Final residual = 9.60733e-07, No Iterations 110
time step continuity errors : sum local = 4.29704e-10, global = 7.44701e-20, cumulative = 5.9807e-19
ExecutionTime = 1.26 s  ClockTime = 2 s

Time = 0.07625

Courant Number mean: 0.0829406 max: 0.900279
smoothSolver:  Solving for Ux, Initial residual = 0.00348332, Final residual = 9.83551e-06, No Iterations 2
smoothSolver:  Solving for Uy, Initial residual = 0.00485167, Final residual = 7.54971e-07, No Iterations 3
DICPCG:  Solving for p, Initial residual = 0.00841883, Final residual = 0.000410452, No Iterations 32
time step continuity errors : sum local = 1.84386e-07, global = 3.80064e-20, cumulative = 6.36077e-19
DICPCG:  Solving for p, Initial residual = 0.00321595, Final residual = 9.7614e-07, No Iterations 110
time step continuity errors : sum local = 4.37702e-10, global = -6.65241e-20, cumulative = 5.69553e-19
ExecutionTime = 1.27 s  ClockTime = 2 s

Time = 0.0775

Courant Number mean: 0.0834462 max: 0.901187
smoothSolver:  Solving for Ux, Initial residual = 0.00342696, Final residual = 9.66413e-06, No Iterations 2
smoothSolver:  Solving for Uy, Initial residual = 0.00479639, Final residual = 7.44593e-07, No Iterations 3
DICPCG:  Solving for p, Initial residual = 0.00836203, Final residual = 0.000406829, No Iterations 32
time step continuity errors : sum local = 1.83107e-07, global = -1.04207e-19, cumulative = 4.65346e-19
DICPCG:  Solving for p, Initial residual = 0.00318996, Final residual = 9.71001e-07, No Iterations 110
time step continuity errors : sum local = 4.36371e-10, global = -5.59314e-20, cumulative = 4.09414e-19
ExecutionTime = 1.29 s  ClockTime = 2 s

Time = 0.07875

Courant Number mean: 0.0839492 max: 0.902066
smoothSolver:  Solving for Ux, Initial residual = 0.00337356, Final residual = 9.5002e-06, No Iterations 2
smoothSolver:  Solving for Uy, Initial residual = 0.00474291, Final residual = 7.34574e-07, No Iterations 3
DICPCG:  Solving for p, Initial residual = 0.00830446, Final residual = 0.000403405, No Iterations 32
time step continuity errors : sum local = 1.81957e-07, global = -2.25667e-20, cumulative = 3.86848e-19
DICPCG:  Solving for p, Initial residual = 0.00316579, Final residual = 9.59902e-07, No Iterations 110
time step continuity errors : sum local = 4.32315e-10, global = -3.3949e-20, cumulative = 3.52899e-19
ExecutionTime = 1.31 s  ClockTime = 2 s

Time = 0.08

Courant Number mean: 0.0844602 max: 0.902919
smoothSolver:  Solving for Ux, Initial residual = 0.00332124, Final residual = 9.34205e-06, No Iterations 2
smoothSolver:  Solving for Uy, Initial residual = 0.004691, Final residual = 7.24795e-07, No Iterations 3
DICPCG:  Solving for p, Initial residual = 0.00824502, Final residual = 0.000398991, No Iterations 32
time step continuity errors : sum local = 1.8032e-07, global = 3.38046e-20, cumulative = 3.86703e-19
DICPCG:  Solving for p, Initial residual = 0.00313816, Final residual = 9.55193e-07, No Iterations 110
time step continuity errors : sum local = 4.3111e-10, global = -8.35015e-20, cumulative = 3.03202e-19
ExecutionTime = 1.32 s  ClockTime = 2 s

Time = 0.08125

Courant Number mean: 0.0849674 max: 0.903745
smoothSolver:  Solving for Ux, Initial residual = 0.00326994, Final residual = 9.19196e-06, No Iterations 2
smoothSolver:  Solving for Uy, Initial residual = 0.00464078, Final residual = 7.15317e-07, No Iterations 3
DICPCG:  Solving for p, Initial residual = 0.00818544, Final residual = 0.000394238, No Iterations 32
time step continuity errors : sum local = 1.78533e-07, global = -4.1487e-20, cumulative = 2.61715e-19
DICPCG:  Solving for p, Initial residual = 0.00310741, Final residual = 9.45846e-07, No Iterations 110
time step continuity errors : sum local = 4.2775e-10, global = -4.09998e-20, cumulative = 2.20715e-19
ExecutionTime = 1.34 s  ClockTime = 2 s

Time = 0.0825

Courant Number mean: 0.0854703 max: 0.904546
smoothSolver:  Solving for Ux, Initial residual = 0.0032196, Final residual = 9.04616e-06, No Iterations 2
smoothSolver:  Solving for Uy, Initial residual = 0.00459201, Final residual = 7.06201e-07, No Iterations 3
DICPCG:  Solving for p, Initial residual = 0.0083403, Final residual = 0.000415495, No Iterations 30
time step continuity errors : sum local = 1.88526e-07, global = 9.89915e-20, cumulative = 3.19707e-19
DICPCG:  Solving for p, Initial residual = 0.00307937, Final residual = 9.20883e-07, No Iterations 111
time step continuity errors : sum local = 4.17665e-10, global = 5.32745e-20, cumulative = 3.72981e-19
ExecutionTime = 1.36 s  ClockTime = 2 s

Time = 0.08375

Courant Number mean: 0.0859673 max: 0.905321
smoothSolver:  Solving for Ux, Initial residual = 0.00317066, Final residual = 8.90143e-06, No Iterations 2
smoothSolver:  Solving for Uy, Initial residual = 0.00454285, Final residual = 6.97206e-07, No Iterations 3
DICPCG:  Solving for p, Initial residual = 0.00803531, Final residual = 0.000379679, No Iterations 32
time step continuity errors : sum local = 1.7266e-07, global = 2.27294e-20, cumulative = 3.9571e-19
DICPCG:  Solving for p, Initial residual = 0.00302009, Final residual = 9.32267e-07, No Iterations 110
time step continuity errors : sum local = 4.23442e-10, global = -1.01388e-19, cumulative = 2.94323e-19
ExecutionTime = 1.38 s  ClockTime = 2 s

Time = 0.085

Courant Number mean: 0.086458 max: 0.906071
smoothSolver:  Solving for Ux, Initial residual = 0.00312318, Final residual = 8.7658e-06, No Iterations 2
smoothSolver:  Solving for Uy, Initial residual = 0.00449698, Final residual = 6.88838e-07, No Iterations 3
DICPCG:  Solving for p, Initial residual = 0.00796413, Final residual = 0.000383991, No Iterations 32
time step continuity errors : sum local = 1.74949e-07, global = 1.4067e-19, cumulative = 4.34992e-19
DICPCG:  Solving for p, Initial residual = 0.0030458, Final residual = 8.98718e-07, No Iterations 110
time step continuity errors : sum local = 4.09023e-10, global = -9.96714e-20, cumulative = 3.35321e-19
ExecutionTime = 1.39 s  ClockTime = 2 s

Time = 0.08625

Courant Number mean: 0.0869423 max: 0.906797
smoothSolver:  Solving for Ux, Initial residual = 0.00307749, Final residual = 8.63126e-06, No Iterations 2
smoothSolver:  Solving for Uy, Initial residual = 0.00445235, Final residual = 6.80706e-07, No Iterations 3
DICPCG:  Solving for p, Initial residual = 0.00788632, Final residual = 0.00038057, No Iterations 32
time step continuity errors : sum local = 1.73777e-07, global = 1.38047e-19, cumulative = 4.73368e-19
DICPCG:  Solving for p, Initial residual = 0.00302304, Final residual = 8.86461e-07, No Iterations 110
time step continuity errors : sum local = 4.04241e-10, global = 2.0534e-19, cumulative = 6.78708e-19
ExecutionTime = 1.41 s  ClockTime = 2 s

Time = 0.0875

Courant Number mean: 0.0874212 max: 0.907512
smoothSolver:  Solving for Ux, Initial residual = 0.00303578, Final residual = 8.50016e-06, No Iterations 2
smoothSolver:  Solving for Uy, Initial residual = 0.00440836, Final residual = 6.72828e-07, No Iterations 3
DICPCG:  Solving for p, Initial residual = 0.00785936, Final residual = 0.000377553, No Iterations 32
time step continuity errors : sum local = 1.72753e-07, global = 2.99982e-20, cumulative = 7.08706e-19
DICPCG:  Solving for p, Initial residual = 0.00299924, Final residual = 8.79249e-07, No Iterations 110
time step continuity errors : sum local = 4.01815e-10, global = 1.48118e-19, cumulative = 8.56824e-19
ExecutionTime = 1.43 s  ClockTime = 2 s

Time = 0.08875

Courant Number mean: 0.0878952 max: 0.908229
smoothSolver:  Solving for Ux, Initial residual = 0.00299548, Final residual = 8.37283e-06, No Iterations 2
smoothSolver:  Solving for Uy, Initial residual = 0.00436551, Final residual = 6.6527e-07, No Iterations 3
DICPCG:  Solving for p, Initial residual = 0.00779978, Final residual = 0.000373506, No Iterations 32
time step continuity errors : sum local = 1.71265e-07, global = -3.8955e-20, cumulative = 8.17869e-19
DICPCG:  Solving for p, Initial residual = 0.00297907, Final residual = 8.67843e-07, No Iterations 110
time step continuity errors : sum local = 3.9741e-10, global = 1.27858e-19, cumulative = 9.45728e-19
ExecutionTime = 1.45 s  ClockTime = 2 s

Time = 0.09

Courant Number mean: 0.088363 max: 0.908926
smoothSolver:  Solving for Ux, Initial residual = 0.00295582, Final residual = 8.25179e-06, No Iterations 2
smoothSolver:  Solving for Uy, Initial residual = 0.00432376, Final residual = 6.57868e-07, No Iterations 3
DICPCG:  Solving for p, Initial residual = 0.00772881, Final residual = 0.000369306, No Iterations 32
time step continuity errors : sum local = 1.69688e-07, global = -8.92347e-20, cumulative = 8.56493e-19
DICPCG:  Solving for p, Initial residual = 0.00295367, Final residual = 8.58542e-07, No Iterations 110
time step continuity errors : sum local = 3.9397e-10, global = -1.05248e-20, cumulative = 8.45968e-19
ExecutionTime = 1.47 s  ClockTime = 2 s

Time = 0.09125

Courant Number mean: 0.0888242 max: 0.909605
smoothSolver:  Solving for Ux, Initial residual = 0.00291697, Final residual = 8.13779e-06, No Iterations 2
smoothSolver:  Solving for Uy, Initial residual = 0.00428267, Final residual = 6.5063e-07, No Iterations 3
DICPCG:  Solving for p, Initial residual = 0.00766929, Final residual = 0.000365224, No Iterations 32
time step continuity errors : sum local = 1.6816e-07, global = 8.26043e-20, cumulative = 9.28573e-19
DICPCG:  Solving for p, Initial residual = 0.00292975, Final residual = 8.49365e-07, No Iterations 110
time step continuity errors : sum local = 3.90534e-10, global = -3.31302e-19, cumulative = 5.97271e-19
ExecutionTime = 1.49 s  ClockTime = 2 s

Time = 0.0925

Courant Number mean: 0.0892805 max: 0.910263
smoothSolver:  Solving for Ux, Initial residual = 0.00287859, Final residual = 8.02793e-06, No Iterations 2
smoothSolver:  Solving for Uy, Initial residual = 0.00424301, Final residual = 6.43621e-07, No Iterations 3
DICPCG:  Solving for p, Initial residual = 0.00760633, Final residual = 0.000360529, No Iterations 32
time step continuity errors : sum local = 1.66331e-07, global = -3.62951e-20, cumulative = 5.60976e-19
DICPCG:  Solving for p, Initial residual = 0.00291171, Final residual = 8.3113e-07, No Iterations 110
time step continuity errors : sum local = 3.82887e-10, global = 7.28064e-20, cumulative = 6.33782e-19
ExecutionTime = 1.51 s  ClockTime = 2 s

Time = 0.09375

Courant Number mean: 0.0897322 max: 0.910901
smoothSolver:  Solving for Ux, Initial residual = 0.00284105, Final residual = 7.92024e-06, No Iterations 2
smoothSolver:  Solving for Uy, Initial residual = 0.00420441, Final residual = 6.36686e-07, No Iterations 3
DICPCG:  Solving for p, Initial residual = 0.00754036, Final residual = 0.000356133, No Iterations 32
time step continuity errors : sum local = 1.64614e-07, global = -1.75672e-20, cumulative = 6.16215e-19
DICPCG:  Solving for p, Initial residual = 0.00288874, Final residual = 8.20415e-07, No Iterations 110
time step continuity errors : sum local = 3.78653e-10, global = -1.31039e-19, cumulative = 4.85175e-19
ExecutionTime = 1.53 s  ClockTime = 2 s

Time = 0.095

Courant Number mean: 0.0901788 max: 0.911519
smoothSolver:  Solving for Ux, Initial residual = 0.00280446, Final residual = 7.81535e-06, No Iterations 2
smoothSolver:  Solving for Uy, Initial residual = 0.00416651, Final residual = 6.3001e-07, No Iterations 3
DICPCG:  Solving for p, Initial residual = 0.00755983, Final residual = 0.000355353, No Iterations 32
time step continuity errors : sum local = 1.64546e-07, global = 1.09093e-19, cumulative = 5.94269e-19
DICPCG:  Solving for p, Initial residual = 0.00286925, Final residual = 8.15349e-07, No Iterations 110
time step continuity errors : sum local = 3.76921e-10, global = -6.10373e-21, cumulative = 5.88165e-19
ExecutionTime = 1.54 s  ClockTime = 2 s

Time = 0.09625

Courant Number mean: 0.0906247 max: 0.912118
smoothSolver:  Solving for Ux, Initial residual = 0.00277138, Final residual = 7.71398e-06, No Iterations 2
smoothSolver:  Solving for Uy, Initial residual = 0.00412887, Final residual = 6.23475e-07, No Iterations 3
DICPCG:  Solving for p, Initial residual = 0.00751783, Final residual = 0.000355162, No Iterations 32
time step continuity errors : sum local = 1.64741e-07, global = -7.85849e-20, cumulative = 5.0958e-19
DICPCG:  Solving for p, Initial residual = 0.00285072, Final residual = 9.97678e-07, No Iterations 109
time step continuity errors : sum local = 4.61387e-10, global = 1.32632e-21, cumulative = 5.10907e-19
ExecutionTime = 1.56 s  ClockTime = 2 s

Time = 0.0975

Courant Number mean: 0.0910683 max: 0.912698
smoothSolver:  Solving for Ux, Initial residual = 0.0027398, Final residual = 7.61468e-06, No Iterations 2
smoothSolver:  Solving for Uy, Initial residual = 0.00409327, Final residual = 6.17276e-07, No Iterations 3
DICPCG:  Solving for p, Initial residual = 0.00741392, Final residual = 0.000349491, No Iterations 32
time step continuity errors : sum local = 1.6237e-07, global = 2.58934e-20, cumulative = 5.368e-19
DICPCG:  Solving for p, Initial residual = 0.00282759, Final residual = 9.75931e-07, No Iterations 109
time step continuity errors : sum local = 4.52045e-10, global = -1.19302e-19, cumulative = 4.17498e-19
ExecutionTime = 1.58 s  ClockTime = 2 s

Time = 0.09875

Courant Number mean: 0.0915091 max: 0.91326
smoothSolver:  Solving for Ux, Initial residual = 0.00270892, Final residual = 7.51743e-06, No Iterations 2
smoothSolver:  Solving for Uy, Initial residual = 0.00405809, Final residual = 6.11118e-07, No Iterations 3
DICPCG:  Solving for p, Initial residual = 0.00735278, Final residual = 0.000346624, No Iterations 32
time step continuity errors : sum local = 1.61328e-07, global = -4.48939e-20, cumulative = 3.72604e-19
DICPCG:  Solving for p, Initial residual = 0.00281075, Final residual = 9.58418e-07, No Iterations 109
time step continuity errors : sum local = 4.44673e-10, global = -2.04756e-20, cumulative = 3.52129e-19
ExecutionTime = 1.6 s  ClockTime = 2 s

Time = 0.1

Courant Number mean: 0.0919466 max: 0.913806
smoothSolver:  Solving for Ux, Initial residual = 0.00267841, Final residual = 7.42383e-06, No Iterations 2
smoothSolver:  Solving for Uy, Initial residual = 0.00402287, Final residual = 6.05054e-07, No Iterations 3
DICPCG:  Solving for p, Initial residual = 0.00726929, Final residual = 0.000360903, No Iterations 29
time step continuity errors : sum local = 1.68283e-07, global = -1.72311e-19, cumulative = 1.79818e-19
DICPCG:  Solving for p, Initial residual = 0.00275966, Final residual = 8.7269e-07, No Iterations 103
time step continuity errors : sum local = 4.05445e-10, global = 8.79862e-20, cumulative = 2.67804e-19
ExecutionTime = 1.63 s  ClockTime = 2 s

Time = 0.10125

Courant Number mean: 0.0923802 max: 0.914335
smoothSolver:  Solving for Ux, Initial residual = 0.00264772, Final residual = 7.33294e-06, No Iterations 2
smoothSolver:  Solving for Uy, Initial residual = 0.00398797, Final residual = 5.99123e-07, No Iterations 3
DICPCG:  Solving for p, Initial residual = 0.00721986, Final residual = 0.000350346, No Iterations 29
time step continuity errors : sum local = 1.63622e-07, global = -1.36111e-19, cumulative = 1.31693e-19
DICPCG:  Solving for p, Initial residual = 0.00277406, Final residual = 8.87881e-07, No Iterations 96
time step continuity errors : sum local = 4.1297e-10, global = 3.14666e-20, cumulative = 1.63159e-19
ExecutionTime = 1.64 s  ClockTime = 2 s

Time = 0.1025

Courant Number mean: 0.0928112 max: 0.914848
smoothSolver:  Solving for Ux, Initial residual = 0.00261791, Final residual = 7.24959e-06, No Iterations 2
smoothSolver:  Solving for Uy, Initial residual = 0.00395414, Final residual = 5.93432e-07, No Iterations 3
DICPCG:  Solving for p, Initial residual = 0.00719211, Final residual = 0.000348374, No Iterations 29
time step continuity errors : sum local = 1.62954e-07, global = -6.42022e-20, cumulative = 9.89572e-20
DICPCG:  Solving for p, Initial residual = 0.00275976, Final residual = 8.7975e-07, No Iterations 96
time step continuity errors : sum local = 4.09919e-10, global = -2.53082e-20, cumulative = 7.36489e-20
ExecutionTime = 1.66 s  ClockTime = 2 s

Time = 0.10375

Courant Number mean: 0.0932385 max: 0.915345
smoothSolver:  Solving for Ux, Initial residual = 0.00258829, Final residual = 7.16804e-06, No Iterations 2
smoothSolver:  Solving for Uy, Initial residual = 0.00392087, Final residual = 5.87901e-07, No Iterations 3
DICPCG:  Solving for p, Initial residual = 0.00711286, Final residual = 0.000343874, No Iterations 29
time step continuity errors : sum local = 1.6114e-07, global = 2.51476e-20, cumulative = 9.87965e-20
DICPCG:  Solving for p, Initial residual = 0.0027356, Final residual = 8.71124e-07, No Iterations 96
time step continuity errors : sum local = 4.06591e-10, global = 2.05346e-19, cumulative = 3.04142e-19
ExecutionTime = 1.68 s  ClockTime = 2 s

Time = 0.105

Courant Number mean: 0.0936626 max: 0.915849
smoothSolver:  Solving for Ux, Initial residual = 0.00256068, Final residual = 7.08917e-06, No Iterations 2
smoothSolver:  Solving for Uy, Initial residual = 0.00388803, Final residual = 5.82466e-07, No Iterations 3
DICPCG:  Solving for p, Initial residual = 0.00706179, Final residual = 0.00033863, No Iterations 29
time step continuity errors : sum local = 1.58956e-07, global = 4.88101e-20, cumulative = 3.52952e-19
DICPCG:  Solving for p, Initial residual = 0.00271307, Final residual = 8.5737e-07, No Iterations 96
time step continuity errors : sum local = 4.00953e-10, global = 2.52372e-20, cumulative = 3.7819e-19
ExecutionTime = 1.69 s  ClockTime = 2 s

Time = 0.10625

Courant Number mean: 0.0940832 max: 0.91635
smoothSolver:  Solving for Ux, Initial residual = 0.00253541, Final residual = 7.01227e-06, No Iterations 2
smoothSolver:  Solving for Uy, Initial residual = 0.00385584, Final residual = 5.77143e-07, No Iterations 3
DICPCG:  Solving for p, Initial residual = 0.00701715, Final residual = 0.00033372, No Iterations 29
time step continuity errors : sum local = 1.56927e-07, global = 2.26207e-20, cumulative = 4.0081e-19
DICPCG:  Solving for p, Initial residual = 0.00269434, Final residual = 8.48924e-07, No Iterations 96
time step continuity errors : sum local = 3.97715e-10, global = 1.97221e-20, cumulative = 4.20532e-19
ExecutionTime = 1.71 s  ClockTime = 2 s

Time = 0.1075

Courant Number mean: 0.0945004 max: 0.916838
smoothSolver:  Solving for Ux, Initial residual = 0.00251129, Final residual = 6.93735e-06, No Iterations 2
smoothSolver:  Solving for Uy, Initial residual = 0.00382425, Final residual = 5.7196e-07, No Iterations 3
DICPCG:  Solving for p, Initial residual = 0.00699843, Final residual = 0.000338219, No Iterations 29
time step continuity errors : sum local = 1.59302e-07, global = 1.14151e-19, cumulative = 5.34683e-19
DICPCG:  Solving for p, Initial residual = 0.00268137, Final residual = 8.51733e-07, No Iterations 96
time step continuity errors : sum local = 3.9979e-10, global = 1.2251e-19, cumulative = 6.57193e-19
ExecutionTime = 1.72 s  ClockTime = 2 s

Time = 0.10875

Courant Number mean: 0.0949153 max: 0.917312
smoothSolver:  Solving for Ux, Initial residual = 0.00248758, Final residual = 6.86493e-06, No Iterations 2
smoothSolver:  Solving for Uy, Initial residual = 0.00379356, Final residual = 5.66846e-07, No Iterations 3
DICPCG:  Solving for p, Initial residual = 0.00693319, Final residual = 0.000343911, No Iterations 28
time step continuity errors : sum local = 1.6222e-07, global = -1.96224e-20, cumulative = 6.37571e-19
DICPCG:  Solving for p, Initial residual = 0.00267047, Final residual = 8.02085e-07, No Iterations 109
time step continuity errors : sum local = 3.77756e-10, global = 7.24636e-20, cumulative = 7.10034e-19
ExecutionTime = 1.74 s  ClockTime = 2 s

Time = 0.11

Courant Number mean: 0.0953262 max: 0.917771
smoothSolver:  Solving for Ux, Initial residual = 0.0024637, Final residual = 6.79454e-06, No Iterations 2
smoothSolver:  Solving for Uy, Initial residual = 0.0037634, Final residual = 5.61757e-07, No Iterations 3
DICPCG:  Solving for p, Initial residual = 0.00688871, Final residual = 0.000333609, No Iterations 28
time step continuity errors : sum local = 1.57583e-07, global = -1.35758e-19, cumulative = 5.74276e-19
DICPCG:  Solving for p, Initial residual = 0.00266219, Final residual = 7.92602e-07, No Iterations 109
time step continuity errors : sum local = 3.73869e-10, global = 1.49922e-19, cumulative = 7.24198e-19
ExecutionTime = 1.77 s  ClockTime = 2 s

Time = 0.11125

Courant Number mean: 0.0957352 max: 0.918218
smoothSolver:  Solving for Ux, Initial residual = 0.0024406, Final residual = 6.72864e-06, No Iterations 2
smoothSolver:  Solving for Uy, Initial residual = 0.00373377, Final residual = 5.56856e-07, No Iterations 3
DICPCG:  Solving for p, Initial residual = 0.00690502, Final residual = 0.000334033, No Iterations 28
time step continuity errors : sum local = 1.58012e-07, global = 1.74872e-19, cumulative = 8.99071e-19
DICPCG:  Solving for p, Initial residual = 0.00263842, Final residual = 7.8746e-07, No Iterations 109
time step continuity errors : sum local = 3.71946e-10, global = 6.17417e-20, cumulative = 9.60813e-19
ExecutionTime = 1.78 s  ClockTime = 2 s

Time = 0.1125

Courant Number mean: 0.0961432 max: 0.91865
smoothSolver:  Solving for Ux, Initial residual = 0.00241736, Final residual = 6.66691e-06, No Iterations 2
smoothSolver:  Solving for Uy, Initial residual = 0.00370406, Final residual = 5.52013e-07, No Iterations 3
DICPCG:  Solving for p, Initial residual = 0.00688717, Final residual = 0.00032638, No Iterations 28
time step continuity errors : sum local = 1.54625e-07, global = 1.03855e-19, cumulative = 1.06467e-18
DICPCG:  Solving for p, Initial residual = 0.00263114, Final residual = 7.82955e-07, No Iterations 109
time step continuity errors : sum local = 3.70408e-10, global = -1.87333e-20, cumulative = 1.04593e-18
ExecutionTime = 1.8 s  ClockTime = 2 s

Time = 0.11375

Courant Number mean: 0.0965487 max: 0.919069
smoothSolver:  Solving for Ux, Initial residual = 0.00239456, Final residual = 6.60729e-06, No Iterations 2
smoothSolver:  Solving for Uy, Initial residual = 0.00367552, Final residual = 9.99206e-06, No Iterations 2
DICPCG:  Solving for p, Initial residual = 0.0067521, Final residual = 0.000317786, No Iterations 28
time step continuity errors : sum local = 1.50685e-07, global = 5.23941e-20, cumulative = 1.09833e-18
DICPCG:  Solving for p, Initial residual = 0.0026003, Final residual = 9.12692e-07, No Iterations 109
time step continuity errors : sum local = 4.32344e-10, global = -6.48094e-20, cumulative = 1.03352e-18
ExecutionTime = 1.82 s  ClockTime = 2 s

Time = 0.115

Courant Number mean: 0.0969525 max: 0.919475
smoothSolver:  Solving for Ux, Initial residual = 0.0023733, Final residual = 6.54892e-06, No Iterations 2
smoothSolver:  Solving for Uy, Initial residual = 0.00364703, Final residual = 9.90936e-06, No Iterations 2
DICPCG:  Solving for p, Initial residual = 0.00670518, Final residual = 0.000310763, No Iterations 28
time step continuity errors : sum local = 1.47649e-07, global = -1.27098e-19, cumulative = 9.06422e-19
DICPCG:  Solving for p, Initial residual = 0.00257933, Final residual = 9.02684e-07, No Iterations 109
time step continuity errors : sum local = 4.28264e-10, global = 1.56039e-19, cumulative = 1.06246e-18
ExecutionTime = 1.83 s  ClockTime = 2 s

Time = 0.11625

Courant Number mean: 0.0973529 max: 0.919867
smoothSolver:  Solving for Ux, Initial residual = 0.00235366, Final residual = 6.49156e-06, No Iterations 2
smoothSolver:  Solving for Uy, Initial residual = 0.00361853, Final residual = 9.82744e-06, No Iterations 2
DICPCG:  Solving for p, Initial residual = 0.00665473, Final residual = 0.000304592, No Iterations 28
time step continuity errors : sum local = 1.4493e-07, global = -1.27262e-19, cumulative = 9.35199e-19
DICPCG:  Solving for p, Initial residual = 0.00256167, Final residual = 8.90338e-07, No Iterations 109
time step continuity errors : sum local = 4.23052e-10, global = 5.74305e-21, cumulative = 9.40942e-19
ExecutionTime = 1.85 s  ClockTime = 2 s

Time = 0.1175

Courant Number mean: 0.0977505 max: 0.920247
smoothSolver:  Solving for Ux, Initial residual = 0.00233512, Final residual = 6.43558e-06, No Iterations 2
smoothSolver:  Solving for Uy, Initial residual = 0.0035904, Final residual = 9.74744e-06, No Iterations 2
DICPCG:  Solving for p, Initial residual = 0.00662072, Final residual = 0.000298954, No Iterations 28
time step continuity errors : sum local = 1.42498e-07, global = -6.97882e-20, cumulative = 8.71153e-19
DICPCG:  Solving for p, Initial residual = 0.00254502, Final residual = 8.81524e-07, No Iterations 109
time step continuity errors : sum local = 4.19536e-10, global = 1.35713e-19, cumulative = 1.00687e-18
ExecutionTime = 1.87 s  ClockTime = 2 s

Time = 0.11875

Courant Number mean: 0.098146 max: 0.920615
smoothSolver:  Solving for Ux, Initial residual = 0.00231688, Final residual = 6.38127e-06, No Iterations 2
smoothSolver:  Solving for Uy, Initial residual = 0.00356286, Final residual = 9.66853e-06, No Iterations 2
DICPCG:  Solving for p, Initial residual = 0.00660056, Final residual = 0.000297535, No Iterations 28
time step continuity errors : sum local = 1.42046e-07, global = -3.9379e-20, cumulative = 9.67487e-19
DICPCG:  Solving for p, Initial residual = 0.00252416, Final residual = 8.75003e-07, No Iterations 109
time step continuity errors : sum local = 4.17105e-10, global = -6.333e-20, cumulative = 9.04157e-19
ExecutionTime = 1.88 s  ClockTime = 2 s

Time = 0.12

Courant Number mean: 0.0985389 max: 0.920973
smoothSolver:  Solving for Ux, Initial residual = 0.0022986, Final residual = 6.3301e-06, No Iterations 2
smoothSolver:  Solving for Uy, Initial residual = 0.00353576, Final residual = 9.59108e-06, No Iterations 2
DICPCG:  Solving for p, Initial residual = 0.00657259, Final residual = 0.000289154, No Iterations 28
time step continuity errors : sum local = 1.38272e-07, global = 1.72932e-19, cumulative = 1.07709e-18
DICPCG:  Solving for p, Initial residual = 0.0024998, Final residual = 8.57009e-07, No Iterations 109
time step continuity errors : sum local = 4.0905e-10, global = 4.58486e-20, cumulative = 1.12294e-18
ExecutionTime = 1.9 s  ClockTime = 2 s

Time = 0.12125

Courant Number mean: 0.0989292 max: 0.92132
smoothSolver:  Solving for Ux, Initial residual = 0.00228009, Final residual = 6.28028e-06, No Iterations 2
smoothSolver:  Solving for Uy, Initial residual = 0.00350851, Final residual = 9.51537e-06, No Iterations 2
DICPCG:  Solving for p, Initial residual = 0.00651857, Final residual = 0.00032023, No Iterations 27
time step continuity errors : sum local = 1.53255e-07, global = -6.59961e-20, cumulative = 1.05694e-18
DICPCG:  Solving for p, Initial residual = 0.00250316, Final residual = 8.71872e-07, No Iterations 109
time step continuity errors : sum local = 4.16839e-10, global = 1.17627e-19, cumulative = 1.17457e-18
ExecutionTime = 1.92 s  ClockTime = 2 s

Time = 0.1225

Courant Number mean: 0.0993166 max: 0.921655
smoothSolver:  Solving for Ux, Initial residual = 0.00226164, Final residual = 6.23222e-06, No Iterations 2
smoothSolver:  Solving for Uy, Initial residual = 0.00348224, Final residual = 9.44137e-06, No Iterations 2
DICPCG:  Solving for p, Initial residual = 0.00658355, Final residual = 0.000309802, No Iterations 27
time step continuity errors : sum local = 1.48464e-07, global = -8.83377e-20, cumulative = 1.08623e-18
DICPCG:  Solving for p, Initial residual = 0.00250148, Final residual = 8.36145e-07, No Iterations 109
time step continuity errors : sum local = 4.00264e-10, global = 1.47485e-19, cumulative = 1.23372e-18
ExecutionTime = 1.94 s  ClockTime = 2 s

Time = 0.12375

Courant Number mean: 0.0997024 max: 0.922004
smoothSolver:  Solving for Ux, Initial residual = 0.00224495, Final residual = 6.18683e-06, No Iterations 2
smoothSolver:  Solving for Uy, Initial residual = 0.00345626, Final residual = 9.36766e-06, No Iterations 2
DICPCG:  Solving for p, Initial residual = 0.00642077, Final residual = 0.000302036, No Iterations 27
time step continuity errors : sum local = 1.44955e-07, global = -3.81537e-21, cumulative = 1.2299e-18
DICPCG:  Solving for p, Initial residual = 0.00247432, Final residual = 8.23165e-07, No Iterations 109
time step continuity errors : sum local = 3.94594e-10, global = -3.054e-20, cumulative = 1.19936e-18
ExecutionTime = 1.95 s  ClockTime = 2 s

Time = 0.125

Courant Number mean: 0.100085 max: 0.92235
smoothSolver:  Solving for Ux, Initial residual = 0.00222931, Final residual = 6.14332e-06, No Iterations 2
smoothSolver:  Solving for Uy, Initial residual = 0.00343066, Final residual = 9.29534e-06, No Iterations 2
DICPCG:  Solving for p, Initial residual = 0.00636119, Final residual = 0.000297763, No Iterations 27
time step continuity errors : sum local = 1.43123e-07, global = 6.48665e-20, cumulative = 1.26423e-18
DICPCG:  Solving for p, Initial residual = 0.00245436, Final residual = 7.99984e-07, No Iterations 109
time step continuity errors : sum local = 3.8404e-10, global = 1.22923e-20, cumulative = 1.27652e-18
ExecutionTime = 1.99 s  ClockTime = 2 s

Time = 0.12625

Courant Number mean: 0.100464 max: 0.922686
smoothSolver:  Solving for Ux, Initial residual = 0.00221413, Final residual = 6.10109e-06, No Iterations 2
smoothSolver:  Solving for Uy, Initial residual = 0.00340557, Final residual = 9.22385e-06, No Iterations 2
DICPCG:  Solving for p, Initial residual = 0.00639154, Final residual = 0.000299058, No Iterations 27
time step continuity errors : sum local = 1.43967e-07, global = 4.44118e-20, cumulative = 1.32093e-18
DICPCG:  Solving for p, Initial residual = 0.00244137, Final residual = 7.74973e-07, No Iterations 109
time step continuity errors : sum local = 3.72602e-10, global = -6.45551e-20, cumulative = 1.25638e-18
ExecutionTime = 2.01 s  ClockTime = 2 s

Time = 0.1275

Courant Number mean: 0.100844 max: 0.923013
smoothSolver:  Solving for Ux, Initial residual = 0.00219956, Final residual = 6.05997e-06, No Iterations 2
smoothSolver:  Solving for Uy, Initial residual = 0.00338048, Final residual = 9.15261e-06, No Iterations 2
DICPCG:  Solving for p, Initial residual = 0.00635867, Final residual = 0.000293072, No Iterations 27
time step continuity errors : sum local = 1.41317e-07, global = 5.94756e-20, cumulative = 1.31585e-18
DICPCG:  Solving for p, Initial residual = 0.00243351, Final residual = 9.94097e-07, No Iterations 108
time step continuity errors : sum local = 4.78242e-10, global = 6.15555e-20, cumulative = 1.37741e-18
ExecutionTime = 2.02 s  ClockTime = 2 s

Time = 0.12875

Courant Number mean: 0.101222 max: 0.923329
smoothSolver:  Solving for Ux, Initial residual = 0.00218531, Final residual = 6.01942e-06, No Iterations 2
smoothSolver:  Solving for Uy, Initial residual = 0.00335574, Final residual = 9.08381e-06, No Iterations 2
DICPCG:  Solving for p, Initial residual = 0.00627766, Final residual = 0.000282307, No Iterations 27
time step continuity errors : sum local = 1.36344e-07, global = -8.92735e-20, cumulative = 1.28813e-18
DICPCG:  Solving for p, Initial residual = 0.00240714, Final residual = 9.68923e-07, No Iterations 108
time step continuity errors : sum local = 4.66721e-10, global = 2.68268e-21, cumulative = 1.29082e-18
ExecutionTime = 2.04 s  ClockTime = 2 s

Time = 0.13

Courant Number mean: 0.1016 max: 0.923635
smoothSolver:  Solving for Ux, Initial residual = 0.00217117, Final residual = 5.97987e-06, No Iterations 2
smoothSolver:  Solving for Uy, Initial residual = 0.00333104, Final residual = 9.01501e-06, No Iterations 2
DICPCG:  Solving for p, Initial residual = 0.00628275, Final residual = 0.000277092, No Iterations 27
time step continuity errors : sum local = 1.34018e-07, global = 2.03297e-21, cumulative = 1.29285e-18
DICPCG:  Solving for p, Initial residual = 0.00239399, Final residual = 9.46713e-07, No Iterations 108
time step continuity errors : sum local = 4.56583e-10, global = 5.49779e-20, cumulative = 1.34783e-18
ExecutionTime = 2.05 s  ClockTime = 2 s

Time = 0.13125

Courant Number mean: 0.101975 max: 0.92393
smoothSolver:  Solving for Ux, Initial residual = 0.00215697, Final residual = 5.9419e-06, No Iterations 2
smoothSolver:  Solving for Uy, Initial residual = 0.00330656, Final residual = 8.94678e-06, No Iterations 2
DICPCG:  Solving for p, Initial residual = 0.00616888, Final residual = 0.000272692, No Iterations 27
time step continuity errors : sum local = 1.32065e-07, global = -1.78206e-19, cumulative = 1.16962e-18
DICPCG:  Solving for p, Initial residual = 0.00236709, Final residual = 9.23202e-07, No Iterations 108
time step continuity errors : sum local = 4.45833e-10, global = -6.45942e-20, cumulative = 1.10503e-18
ExecutionTime = 2.07 s  ClockTime = 2 s

Time = 0.1325

Courant Number mean: 0.102349 max: 0.924217
smoothSolver:  Solving for Ux, Initial residual = 0.00214281, Final residual = 5.90509e-06, No Iterations 2
smoothSolver:  Solving for Uy, Initial residual = 0.00328243, Final residual = 8.87953e-06, No Iterations 2
DICPCG:  Solving for p, Initial residual = 0.00614937, Final residual = 0.000268699, No Iterations 27
time step continuity errors : sum local = 1.30313e-07, global = -1.18291e-19, cumulative = 9.86737e-19
DICPCG:  Solving for p, Initial residual = 0.00235098, Final residual = 9.11853e-07, No Iterations 108
time step continuity errors : sum local = 4.40926e-10, global = -1.83873e-19, cumulative = 8.02865e-19
ExecutionTime = 2.09 s  ClockTime = 3 s

Time = 0.13375

Courant Number mean: 0.102722 max: 0.924495
smoothSolver:  Solving for Ux, Initial residual = 0.00212982, Final residual = 5.86986e-06, No Iterations 2
smoothSolver:  Solving for Uy, Initial residual = 0.00325846, Final residual = 8.81434e-06, No Iterations 2
DICPCG:  Solving for p, Initial residual = 0.00611341, Final residual = 0.000263459, No Iterations 27
time step continuity errors : sum local = 1.2795e-07, global = -9.66767e-20, cumulative = 7.06188e-19
DICPCG:  Solving for p, Initial residual = 0.00232844, Final residual = 8.96129e-07, No Iterations 108
time step continuity errors : sum local = 4.33857e-10, global = -1.38658e-19, cumulative = 5.67531e-19
ExecutionTime = 2.1 s  ClockTime = 3 s

Time = 0.135

Courant Number mean: 0.103092 max: 0.924764
smoothSolver:  Solving for Ux, Initial residual = 0.00211764, Final residual = 5.83671e-06, No Iterations 2
smoothSolver:  Solving for Uy, Initial residual = 0.00323476, Final residual = 8.74956e-06, No Iterations 2
DICPCG:  Solving for p, Initial residual = 0.00609636, Final residual = 0.000256663, No Iterations 27
time step continuity errors : sum local = 1.24822e-07, global = 9.42908e-20, cumulative = 6.61821e-19
DICPCG:  Solving for p, Initial residual = 0.00231428, Final residual = 8.76998e-07, No Iterations 108
time step continuity errors : sum local = 4.25135e-10, global = -4.30344e-20, cumulative = 6.18787e-19
ExecutionTime = 2.12 s  ClockTime = 3 s

Time = 0.13625

Courant Number mean: 0.103459 max: 0.925023
smoothSolver:  Solving for Ux, Initial residual = 0.00210581, Final residual = 5.80514e-06, No Iterations 2
smoothSolver:  Solving for Uy, Initial residual = 0.00321145, Final residual = 8.68672e-06, No Iterations 2
DICPCG:  Solving for p, Initial residual = 0.00599475, Final residual = 0.000252608, No Iterations 27
time step continuity errors : sum local = 1.23028e-07, global = 7.02509e-20, cumulative = 6.89038e-19
DICPCG:  Solving for p, Initial residual = 0.00229985, Final residual = 8.65433e-07, No Iterations 108
time step continuity errors : sum local = 4.20127e-10, global = 3.4125e-20, cumulative = 7.23163e-19
[...]
DICPCG:  Solving for p, Initial residual = 1.23827e-06, Final residual = 6.95169e-07, No Iterations 2
time step continuity errors : sum local = 5.15944e-10, global = 2.2746e-19, cumulative = 3.9043e-18
ExecutionTime = 38.92 s  ClockTime = 43 s

Time = 3.9675

Courant Number mean: 0.280862 max: 0.935677
smoothSolver:  Solving for Ux, Initial residual = 5.68971e-07, Final residual = 5.68971e-07, No Iterations 0
smoothSolver:  Solving for Uy, Initial residual = 5.80669e-07, Final residual = 5.80669e-07, No Iterations 0
DICPCG:  Solving for p, Initial residual = 1.46043e-06, Final residual = 8.27306e-07, No Iterations 6
time step continuity errors : sum local = 6.00763e-10, global = -3.80025e-20, cumulative = 3.8663e-18
DICPCG:  Solving for p, Initial residual = 1.00687e-06, Final residual = 9.64195e-07, No Iterations 1
time step continuity errors : sum local = 6.84692e-10, global = 3.25948e-19, cumulative = 4.19224e-18
ExecutionTime = 38.92 s  ClockTime = 43 s

Time = 3.96875

Courant Number mean: 0.280862 max: 0.935677
smoothSolver:  Solving for Ux, Initial residual = 5.66083e-07, Final residual = 5.66083e-07, No Iterations 0
smoothSolver:  Solving for Uy, Initial residual = 5.80445e-07, Final residual = 5.80445e-07, No Iterations 0
DICPCG:  Solving for p, Initial residual = 1.66697e-06, Final residual = 9.1047e-07, No Iterations 5
time step continuity errors : sum local = 6.56451e-10, global = 1.2737e-20, cumulative = 4.20498e-18
DICPCG:  Solving for p, Initial residual = 1.18927e-06, Final residual = 9.64502e-07, No Iterations 2
time step continuity errors : sum local = 6.94238e-10, global = 2.7921e-19, cumulative = 4.48419e-18
ExecutionTime = 38.92 s  ClockTime = 43 s

Time = 3.97

Courant Number mean: 0.280863 max: 0.935677
smoothSolver:  Solving for Ux, Initial residual = 5.65746e-07, Final residual = 5.65746e-07, No Iterations 0
smoothSolver:  Solving for Uy, Initial residual = 5.7841e-07, Final residual = 5.7841e-07, No Iterations 0
DICPCG:  Solving for p, Initial residual = 1.90553e-06, Final residual = 9.2517e-07, No Iterations 8
time step continuity errors : sum local = 6.69364e-10, global = 4.30926e-19, cumulative = 4.91512e-18
DICPCG:  Solving for p, Initial residual = 1.19669e-06, Final residual = 9.36789e-07, No Iterations 2
time step continuity errors : sum local = 6.81593e-10, global = -3.01395e-19, cumulative = 4.61372e-18
ExecutionTime = 38.93 s  ClockTime = 43 s

Time = 3.97125

Courant Number mean: 0.280863 max: 0.935677
smoothSolver:  Solving for Ux, Initial residual = 5.63293e-07, Final residual = 5.63293e-07, No Iterations 0
smoothSolver:  Solving for Uy, Initial residual = 5.78157e-07, Final residual = 5.78157e-07, No Iterations 0
DICPCG:  Solving for p, Initial residual = 1.7715e-06, Final residual = 8.83997e-07, No Iterations 2
time step continuity errors : sum local = 6.51451e-10, global = -4.61916e-20, cumulative = 4.56753e-18
DICPCG:  Solving for p, Initial residual = 1.19874e-06, Final residual = 9.43565e-07, No Iterations 1
time step continuity errors : sum local = 6.88922e-10, global = -1.38852e-19, cumulative = 4.42868e-18
ExecutionTime = 38.93 s  ClockTime = 43 s

Time = 3.9725

Courant Number mean: 0.280863 max: 0.935677
smoothSolver:  Solving for Ux, Initial residual = 5.63587e-07, Final residual = 5.63587e-07, No Iterations 0
smoothSolver:  Solving for Uy, Initial residual = 5.75341e-07, Final residual = 5.75341e-07, No Iterations 0
DICPCG:  Solving for p, Initial residual = 1.91628e-06, Final residual = 9.43358e-07, No Iterations 9
time step continuity errors : sum local = 6.95343e-10, global = 3.17996e-20, cumulative = 4.46048e-18
DICPCG:  Solving for p, Initial residual = 1.14601e-06, Final residual = 7.63583e-07, No Iterations 1
time step continuity errors : sum local = 5.86218e-10, global = 6.21374e-20, cumulative = 4.52261e-18
ExecutionTime = 38.93 s  ClockTime = 43 s

Time = 3.97375

Courant Number mean: 0.280863 max: 0.935677
smoothSolver:  Solving for Ux, Initial residual = 5.58994e-07, Final residual = 5.58994e-07, No Iterations 0
smoothSolver:  Solving for Uy, Initial residual = 5.75464e-07, Final residual = 5.75464e-07, No Iterations 0
DICPCG:  Solving for p, Initial residual = 1.42329e-06, Final residual = 7.6891e-07, No Iterations 3
time step continuity errors : sum local = 5.97345e-10, global = -3.70412e-20, cumulative = 4.48557e-18
DICPCG:  Solving for p, Initial residual = 9.59596e-07, Final residual = 9.59596e-07, No Iterations 0
time step continuity errors : sum local = 7.13452e-10, global = -6.44212e-20, cumulative = 4.42115e-18
ExecutionTime = 38.94 s  ClockTime = 43 s

Time = 3.975

Courant Number mean: 0.280863 max: 0.935677
smoothSolver:  Solving for Ux, Initial residual = 5.60146e-07, Final residual = 5.60146e-07, No Iterations 0
smoothSolver:  Solving for Uy, Initial residual = 5.72948e-07, Final residual = 5.72948e-07, No Iterations 0
DICPCG:  Solving for p, Initial residual = 1.81064e-06, Final residual = 9.7712e-07, No Iterations 4
time step continuity errors : sum local = 7.13515e-10, global = -7.71688e-20, cumulative = 4.34398e-18
DICPCG:  Solving for p, Initial residual = 1.32316e-06, Final residual = 9.49158e-07, No Iterations 2
time step continuity errors : sum local = 7.03121e-10, global = 5.71679e-20, cumulative = 4.40115e-18
ExecutionTime = 38.96 s  ClockTime = 43 s

Time = 3.97625

Courant Number mean: 0.280864 max: 0.935677
smoothSolver:  Solving for Ux, Initial residual = 5.59825e-07, Final residual = 5.59825e-07, No Iterations 0
smoothSolver:  Solving for Uy, Initial residual = 5.70335e-07, Final residual = 5.70335e-07, No Iterations 0
DICPCG:  Solving for p, Initial residual = 2.16903e-06, Final residual = 9.0676e-07, No Iterations 9
time step continuity errors : sum local = 6.85556e-10, global = -2.17113e-19, cumulative = 4.18404e-18
DICPCG:  Solving for p, Initial residual = 1.1312e-06, Final residual = 9.51168e-07, No Iterations 1
time step continuity errors : sum local = 7.16255e-10, global = -4.14851e-19, cumulative = 3.76919e-18
ExecutionTime = 38.96 s  ClockTime = 43 s

Time = 3.9775

Courant Number mean: 0.280864 max: 0.935677
smoothSolver:  Solving for Ux, Initial residual = 5.549e-07, Final residual = 5.549e-07, No Iterations 0
smoothSolver:  Solving for Uy, Initial residual = 5.71594e-07, Final residual = 5.71594e-07, No Iterations 0
DICPCG:  Solving for p, Initial residual = 1.74056e-06, Final residual = 9.26604e-07, No Iterations 4
time step continuity errors : sum local = 7.02873e-10, global = 9.13808e-21, cumulative = 3.77833e-18
DICPCG:  Solving for p, Initial residual = 1.0799e-06, Final residual = 9.04459e-07, No Iterations 1
time step continuity errors : sum local = 6.93422e-10, global = 1.20695e-19, cumulative = 3.89902e-18
ExecutionTime = 38.96 s  ClockTime = 43 s

Time = 3.97875

Courant Number mean: 0.280864 max: 0.935677
smoothSolver:  Solving for Ux, Initial residual = 5.56072e-07, Final residual = 5.56072e-07, No Iterations 0
smoothSolver:  Solving for Uy, Initial residual = 5.68886e-07, Final residual = 5.68886e-07, No Iterations 0
DICPCG:  Solving for p, Initial residual = 1.64497e-06, Final residual = 8.86232e-07, No Iterations 3
time step continuity errors : sum local = 6.80806e-10, global = 3.46526e-19, cumulative = 4.24555e-18
DICPCG:  Solving for p, Initial residual = 1.24993e-06, Final residual = 9.71129e-07, No Iterations 2
time step continuity errors : sum local = 7.31146e-10, global = 1.73032e-19, cumulative = 4.41858e-18
ExecutionTime = 38.97 s  ClockTime = 43 s

Time = 3.98

Courant Number mean: 0.280864 max: 0.935677
smoothSolver:  Solving for Ux, Initial residual = 5.55888e-07, Final residual = 5.55888e-07, No Iterations 0
smoothSolver:  Solving for Uy, Initial residual = 5.66188e-07, Final residual = 5.66188e-07, No Iterations 0
DICPCG:  Solving for p, Initial residual = 2.05759e-06, Final residual = 9.86703e-07, No Iterations 11
time step continuity errors : sum local = 7.49429e-10, global = -1.3412e-19, cumulative = 4.28446e-18
DICPCG:  Solving for p, Initial residual = 1.26001e-06, Final residual = 9.74737e-07, No Iterations 1
time step continuity errors : sum local = 7.46795e-10, global = -6.43304e-20, cumulative = 4.22013e-18
ExecutionTime = 38.97 s  ClockTime = 43 s

Time = 3.98125

Courant Number mean: 0.280864 max: 0.935677
smoothSolver:  Solving for Ux, Initial residual = 5.49591e-07, Final residual = 5.49591e-07, No Iterations 0
smoothSolver:  Solving for Uy, Initial residual = 5.68465e-07, Final residual = 5.68465e-07, No Iterations 0
DICPCG:  Solving for p, Initial residual = 1.98017e-06, Final residual = 8.83372e-07, No Iterations 3
time step continuity errors : sum local = 6.94134e-10, global = 2.71289e-19, cumulative = 4.49142e-18
DICPCG:  Solving for p, Initial residual = 1.05611e-06, Final residual = 9.44173e-07, No Iterations 1
time step continuity errors : sum local = 7.26244e-10, global = 1.89564e-19, cumulative = 4.68098e-18
ExecutionTime = 38.97 s  ClockTime = 43 s

Time = 3.9825

Courant Number mean: 0.280865 max: 0.935677
smoothSolver:  Solving for Ux, Initial residual = 5.51148e-07, Final residual = 5.51148e-07, No Iterations 0
smoothSolver:  Solving for Uy, Initial residual = 5.64712e-07, Final residual = 5.64712e-07, No Iterations 0
DICPCG:  Solving for p, Initial residual = 1.76823e-06, Final residual = 9.80133e-07, No Iterations 1
time step continuity errors : sum local = 7.55191e-10, global = -1.04665e-19, cumulative = 4.57632e-18
DICPCG:  Solving for p, Initial residual = 1.25286e-06, Final residual = 6.85102e-07, No Iterations 4
time step continuity errors : sum local = 5.717e-10, global = -8.56726e-20, cumulative = 4.49064e-18
ExecutionTime = 38.98 s  ClockTime = 43 s

Time = 3.98375

Courant Number mean: 0.280865 max: 0.935677
smoothSolver:  Solving for Ux, Initial residual = 5.51746e-07, Final residual = 5.51746e-07, No Iterations 0
smoothSolver:  Solving for Uy, Initial residual = 5.62173e-07, Final residual = 5.62173e-07, No Iterations 0
DICPCG:  Solving for p, Initial residual = 1.5527e-06, Final residual = 9.47783e-07, No Iterations 9
time step continuity errors : sum local = 7.39206e-10, global = -5.63207e-20, cumulative = 4.43432e-18
DICPCG:  Solving for p, Initial residual = 1.19635e-06, Final residual = 8.93049e-07, No Iterations 3
time step continuity errors : sum local = 7.06263e-10, global = 2.30535e-19, cumulative = 4.66486e-18
ExecutionTime = 38.98 s  ClockTime = 43 s

Time = 3.985

Courant Number mean: 0.280865 max: 0.935677
smoothSolver:  Solving for Ux, Initial residual = 5.47741e-07, Final residual = 5.47741e-07, No Iterations 0
smoothSolver:  Solving for Uy, Initial residual = 5.62523e-07, Final residual = 5.62523e-07, No Iterations 0
DICPCG:  Solving for p, Initial residual = 1.70392e-06, Final residual = 8.06707e-07, No Iterations 2
time step continuity errors : sum local = 6.55645e-10, global = -2.08998e-19, cumulative = 4.45586e-18
DICPCG:  Solving for p, Initial residual = 1.1178e-06, Final residual = 8.01902e-07, No Iterations 4
time step continuity errors : sum local = 6.51711e-10, global = -3.78497e-20, cumulative = 4.41801e-18
ExecutionTime = 38.99 s  ClockTime = 43 s

Time = 3.98625

Courant Number mean: 0.280865 max: 0.935677
smoothSolver:  Solving for Ux, Initial residual = 5.48579e-07, Final residual = 5.48579e-07, No Iterations 0
smoothSolver:  Solving for Uy, Initial residual = 5.59334e-07, Final residual = 5.59334e-07, No Iterations 0
DICPCG:  Solving for p, Initial residual = 1.46384e-06, Final residual = 9.7156e-07, No Iterations 12
time step continuity errors : sum local = 7.61007e-10, global = 2.77063e-19, cumulative = 4.69507e-18
DICPCG:  Solving for p, Initial residual = 1.14889e-06, Final residual = 9.20869e-07, No Iterations 1
time step continuity errors : sum local = 7.30913e-10, global = 7.07369e-21, cumulative = 4.70215e-18
ExecutionTime = 38.99 s  ClockTime = 43 s

Time = 3.9875

Courant Number mean: 0.280865 max: 0.935677
smoothSolver:  Solving for Ux, Initial residual = 5.43436e-07, Final residual = 5.43436e-07, No Iterations 0
smoothSolver:  Solving for Uy, Initial residual = 5.61055e-07, Final residual = 5.61055e-07, No Iterations 0
DICPCG:  Solving for p, Initial residual = 1.76962e-06, Final residual = 8.62287e-07, No Iterations 3
time step continuity errors : sum local = 6.97667e-10, global = 1.17288e-19, cumulative = 4.81943e-18
DICPCG:  Solving for p, Initial residual = 1.02906e-06, Final residual = 7.91492e-07, No Iterations 2
time step continuity errors : sum local = 6.51745e-10, global = 5.94481e-20, cumulative = 4.87888e-18
ExecutionTime = 38.99 s  ClockTime = 43 s

Time = 3.98875

Courant Number mean: 0.280865 max: 0.935677
smoothSolver:  Solving for Ux, Initial residual = 5.44536e-07, Final residual = 5.44536e-07, No Iterations 0
smoothSolver:  Solving for Uy, Initial residual = 5.57686e-07, Final residual = 5.57686e-07, No Iterations 0
DICPCG:  Solving for p, Initial residual = 1.75575e-06, Final residual = 9.92094e-07, No Iterations 4
time step continuity errors : sum local = 7.74612e-10, global = 3.52964e-20, cumulative = 4.91418e-18
DICPCG:  Solving for p, Initial residual = 1.21684e-06, Final residual = 9.13162e-07, No Iterations 1
time step continuity errors : sum local = 7.25034e-10, global = -2.75571e-20, cumulative = 4.88662e-18
ExecutionTime = 39 s  ClockTime = 43 s

Time = 3.99

Courant Number mean: 0.280866 max: 0.935677
smoothSolver:  Solving for Ux, Initial residual = 5.45205e-07, Final residual = 5.45205e-07, No Iterations 0
smoothSolver:  Solving for Uy, Initial residual = 5.54708e-07, Final residual = 5.54708e-07, No Iterations 0
DICPCG:  Solving for p, Initial residual = 1.76496e-06, Final residual = 8.47526e-07, No Iterations 51
time step continuity errors : sum local = 5.18216e-10, global = -3.48459e-19, cumulative = 4.53816e-18
DICPCG:  Solving for p, Initial residual = 1.133e-06, Final residual = 7.61336e-07, No Iterations 1
time step continuity errors : sum local = 4.78132e-10, global = 2.96331e-19, cumulative = 4.83449e-18
ExecutionTime = 39 s  ClockTime = 43 s

Time = 3.99125

Courant Number mean: 0.280866 max: 0.935677
smoothSolver:  Solving for Ux, Initial residual = 5.39002e-07, Final residual = 5.39002e-07, No Iterations 0
smoothSolver:  Solving for Uy, Initial residual = 5.70712e-07, Final residual = 5.70712e-07, No Iterations 0
DICPCG:  Solving for p, Initial residual = 1.73962e-06, Final residual = 9.67134e-07, No Iterations 5
time step continuity errors : sum local = 7.26922e-10, global = -2.71946e-19, cumulative = 4.56255e-18
DICPCG:  Solving for p, Initial residual = 1.17772e-06, Final residual = 8.73443e-07, No Iterations 2
time step continuity errors : sum local = 6.94214e-10, global = -5.00005e-20, cumulative = 4.51255e-18
ExecutionTime = 39.01 s  ClockTime = 43 s

Time = 3.9925

Courant Number mean: 0.280866 max: 0.935677
smoothSolver:  Solving for Ux, Initial residual = 5.37041e-07, Final residual = 5.37041e-07, No Iterations 0
smoothSolver:  Solving for Uy, Initial residual = 5.63719e-07, Final residual = 5.63719e-07, No Iterations 0
DICPCG:  Solving for p, Initial residual = 1.77628e-06, Final residual = 7.22082e-07, No Iterations 60
time step continuity errors : sum local = 4.39877e-10, global = -8.83578e-20, cumulative = 4.42419e-18
DICPCG:  Solving for p, Initial residual = 9.70338e-07, Final residual = 9.70338e-07, No Iterations 0
time step continuity errors : sum local = 5.90629e-10, global = -1.18569e-19, cumulative = 4.30562e-18
ExecutionTime = 39.03 s  ClockTime = 43 s

Time = 3.99375

Courant Number mean: 0.280866 max: 0.935677
smoothSolver:  Solving for Ux, Initial residual = 5.61482e-07, Final residual = 5.61482e-07, No Iterations 0
smoothSolver:  Solving for Uy, Initial residual = 5.53303e-07, Final residual = 5.53303e-07, No Iterations 0
DICPCG:  Solving for p, Initial residual = 2.14825e-06, Final residual = 9.90572e-07, No Iterations 68
time step continuity errors : sum local = 6.03531e-10, global = 4.35785e-20, cumulative = 4.3492e-18
DICPCG:  Solving for p, Initial residual = 1.20758e-06, Final residual = 9.40956e-07, No Iterations 3
time step continuity errors : sum local = 5.82593e-10, global = -1.39292e-19, cumulative = 4.20991e-18
ExecutionTime = 39.04 s  ClockTime = 43 s

Time = 3.995

Courant Number mean: 0.280866 max: 0.935677
smoothSolver:  Solving for Ux, Initial residual = 5.28094e-07, Final residual = 5.28094e-07, No Iterations 0
smoothSolver:  Solving for Uy, Initial residual = 5.54307e-07, Final residual = 5.54307e-07, No Iterations 0
DICPCG:  Solving for p, Initial residual = 1.77294e-06, Final residual = 9.84067e-07, No Iterations 17
time step continuity errors : sum local = 6.44414e-10, global = -3.23848e-20, cumulative = 4.17752e-18
DICPCG:  Solving for p, Initial residual = 1.21584e-06, Final residual = 8.88118e-07, No Iterations 3
time step continuity errors : sum local = 5.95263e-10, global = 4.56973e-19, cumulative = 4.6345e-18
ExecutionTime = 39.04 s  ClockTime = 43 s

Time = 3.99625

Courant Number mean: 0.280867 max: 0.935677
smoothSolver:  Solving for Ux, Initial residual = 5.42171e-07, Final residual = 5.42171e-07, No Iterations 0
smoothSolver:  Solving for Uy, Initial residual = 5.49188e-07, Final residual = 5.49188e-07, No Iterations 0
DICPCG:  Solving for p, Initial residual = 1.7867e-06, Final residual = 9.25543e-07, No Iterations 7
time step continuity errors : sum local = 6.38059e-10, global = 7.48107e-19, cumulative = 5.3826e-18
DICPCG:  Solving for p, Initial residual = 1.03959e-06, Final residual = 8.04787e-07, No Iterations 1
time step continuity errors : sum local = 5.64297e-10, global = 2.04921e-19, cumulative = 5.58752e-18
ExecutionTime = 39.04 s  ClockTime = 43 s

Time = 3.9975

Courant Number mean: 0.280867 max: 0.935677
smoothSolver:  Solving for Ux, Initial residual = 5.3773e-07, Final residual = 5.3773e-07, No Iterations 0
smoothSolver:  Solving for Uy, Initial residual = 5.48069e-07, Final residual = 5.48069e-07, No Iterations 0
DICPCG:  Solving for p, Initial residual = 1.5767e-06, Final residual = 8.71979e-07, No Iterations 7
time step continuity errors : sum local = 5.96931e-10, global = 3.56171e-19, cumulative = 5.9437e-18
DICPCG:  Solving for p, Initial residual = 1.16052e-06, Final residual = 7.63909e-07, No Iterations 4
time step continuity errors : sum local = 5.49273e-10, global = 9.12635e-20, cumulative = 6.03496e-18
ExecutionTime = 39.05 s  ClockTime = 43 s

Time = 3.99875

Courant Number mean: 0.280867 max: 0.935677
smoothSolver:  Solving for Ux, Initial residual = 5.33691e-07, Final residual = 5.33691e-07, No Iterations 0
smoothSolver:  Solving for Uy, Initial residual = 5.48684e-07, Final residual = 5.48684e-07, No Iterations 0
DICPCG:  Solving for p, Initial residual = 1.42868e-06, Final residual = 9.66067e-07, No Iterations 2
time step continuity errors : sum local = 6.67466e-10, global = -2.52296e-19, cumulative = 5.78266e-18
DICPCG:  Solving for p, Initial residual = 1.38193e-06, Final residual = 9.47248e-07, No Iterations 1
time step continuity errors : sum local = 6.63174e-10, global = -2.40071e-19, cumulative = 5.54259e-18
ExecutionTime = 39.05 s  ClockTime = 43 s

Time = 4

Courant Number mean: 0.280867 max: 0.935677
smoothSolver:  Solving for Ux, Initial residual = 5.34066e-07, Final residual = 5.34066e-07, No Iterations 0
smoothSolver:  Solving for Uy, Initial residual = 5.45579e-07, Final residual = 5.45579e-07, No Iterations 0
DICPCG:  Solving for p, Initial residual = 1.81919e-06, Final residual = 9.49619e-07, No Iterations 24
time step continuity errors : sum local = 6.7897e-10, global = -2.03548e-19, cumulative = 5.33904e-18
DICPCG:  Solving for p, Initial residual = 1.12271e-06, Final residual = 9.15316e-07, No Iterations 1
time step continuity errors : sum local = 6.60172e-10, global = 3.27832e-19, cumulative = 5.66688e-18
ExecutionTime = 39.07 s  ClockTime = 43 s

End

