/*---------------------------------------------------------------------------*\
  =========                 |
  \\      /  F ield         | OpenFOAM: The Open Source CFD Toolbox
   \\    /   O peration     | Website:  https://openfoam.org
    \\  /    A nd           | Version:  7
     \\/     M anipulation  |
\*---------------------------------------------------------------------------*/
Build  : 7
Exec   : icoFoam
Date   : Feb 10 2025
Time   : 15:46:12
Host   : "c208-032.frontera.tacc.utexas.edu"
PID    : 270068
I/O    : uncollated
Case   : /work2/10531/andressuniaga/frontera/COE-347-SP25/run/cavity
nProcs : 1
sigFpe : Enabling floating point exception trapping (FOAM_SIGFPE).
fileModificationChecking : Monitoring run-time modified files using timeStampMaster (fileModificationSkew 10)
allowSystemOperations : Allowing user-supplied system call operations

// * * * * * * * * * * * * * * * * * * * * * * * * * * * * * * * * * * * * * //
Create time

Create mesh for time = 0

Reading transportProperties

Reading field p

Reading field U

Reading/calculating face flux field phi


Starting time loop

Time = 0.00125

Courant Number mean: 0 max: 0
smoothSolver:  Solving for Ux, Initial residual = 1, Final residual = 2.53903e-06, No Iterations 6
smoothSolver:  Solving for Uy, Initial residual = 0, Final residual = 0, No Iterations 0
DICPCG:  Solving for p, Initial residual = 1, Final residual = 0.0438724, No Iterations 96
time step continuity errors : sum local = 5.81208e-06, global = 3.84432e-20, cumulative = 3.84432e-20
DICPCG:  Solving for p, Initial residual = 0.308709, Final residual = 7.94555e-07, No Iterations 138
time step continuity errors : sum local = 2.12201e-10, global = -4.56537e-21, cumulative = 3.38779e-20
ExecutionTime = 0.08 s  ClockTime = 0 s

Time = 0.0025

Courant Number mean: 0.0123922 max: 0.329943
smoothSolver:  Solving for Ux, Initial residual = 0.267421, Final residual = 1.6202e-06, No Iterations 6
smoothSolver:  Solving for Uy, Initial residual = 0.322655, Final residual = 3.34437e-06, No Iterations 6
DICPCG:  Solving for p, Initial residual = 0.204707, Final residual = 0.00924908, No Iterations 94
time step continuity errors : sum local = 2.41337e-06, global = -5.30068e-20, cumulative = -1.91289e-20
DICPCG:  Solving for p, Initial residual = 0.0892016, Final residual = 9.72422e-07, No Iterations 126
time step continuity errors : sum local = 2.70492e-10, global = 7.91461e-20, cumulative = 6.00172e-20
ExecutionTime = 0.1 s  ClockTime = 0 s

Time = 0.00375

Courant Number mean: 0.0210943 max: 0.513067
smoothSolver:  Solving for Ux, Initial residual = 0.135924, Final residual = 6.02826e-06, No Iterations 5
smoothSolver:  Solving for Uy, Initial residual = 0.165535, Final residual = 1.75194e-06, No Iterations 6
DICPCG:  Solving for p, Initial residual = 0.124998, Final residual = 0.00609745, No Iterations 48
time step continuity errors : sum local = 2.15784e-06, global = -1.05869e-19, cumulative = -4.58516e-20
DICPCG:  Solving for p, Initial residual = 0.0543405, Final residual = 8.86197e-07, No Iterations 130
time step continuity errors : sum local = 2.77333e-10, global = 6.17023e-20, cumulative = 1.58507e-20
ExecutionTime = 0.12 s  ClockTime = 0 s

Time = 0.005

Courant Number mean: 0.0276078 max: 0.619423
smoothSolver:  Solving for Ux, Initial residual = 0.084968, Final residual = 3.98493e-06, No Iterations 5
smoothSolver:  Solving for Uy, Initial residual = 0.104514, Final residual = 7.51702e-06, No Iterations 5
DICPCG:  Solving for p, Initial residual = 0.0865325, Final residual = 0.00362906, No Iterations 47
time step continuity errors : sum local = 1.18245e-06, global = 2.17022e-20, cumulative = 3.75529e-20
DICPCG:  Solving for p, Initial residual = 0.0370237, Final residual = 8.52061e-07, No Iterations 128
time step continuity errors : sum local = 2.87514e-10, global = 7.20656e-20, cumulative = 1.09619e-19
ExecutionTime = 0.15 s  ClockTime = 0 s

Time = 0.00625

Courant Number mean: 0.032797 max: 0.684792
smoothSolver:  Solving for Ux, Initial residual = 0.0602512, Final residual = 2.97583e-06, No Iterations 5
smoothSolver:  Solving for Uy, Initial residual = 0.0734124, Final residual = 5.35387e-06, No Iterations 5
DICPCG:  Solving for p, Initial residual = 0.0595458, Final residual = 0.00254549, No Iterations 47
time step continuity errors : sum local = 1.0417e-06, global = 8.7455e-21, cumulative = 1.18364e-19
DICPCG:  Solving for p, Initial residual = 0.0272221, Final residual = 7.47947e-07, No Iterations 127
time step continuity errors : sum local = 2.68208e-10, global = -5.59424e-20, cumulative = 6.24217e-20
ExecutionTime = 0.17 s  ClockTime = 0 s

Time = 0.0075

Courant Number mean: 0.0371691 max: 0.727437
smoothSolver:  Solving for Ux, Initial residual = 0.0461317, Final residual = 2.36096e-06, No Iterations 5
smoothSolver:  Solving for Uy, Initial residual = 0.0561995, Final residual = 4.14029e-06, No Iterations 5
DICPCG:  Solving for p, Initial residual = 0.0445327, Final residual = 0.00221773, No Iterations 46
time step continuity errors : sum local = 8.14843e-07, global = -3.14633e-20, cumulative = 3.09584e-20
DICPCG:  Solving for p, Initial residual = 0.0211335, Final residual = 8.83261e-07, No Iterations 125
time step continuity errors : sum local = 3.28345e-10, global = -3.01818e-20, cumulative = 7.76572e-22
ExecutionTime = 0.19 s  ClockTime = 0 s

Time = 0.00875

Courant Number mean: 0.0409462 max: 0.756928
smoothSolver:  Solving for Ux, Initial residual = 0.0373073, Final residual = 1.97197e-06, No Iterations 5
smoothSolver:  Solving for Uy, Initial residual = 0.0450642, Final residual = 3.34653e-06, No Iterations 5
DICPCG:  Solving for p, Initial residual = 0.0354983, Final residual = 0.00166547, No Iterations 46
time step continuity errors : sum local = 7.06541e-07, global = 1.89967e-20, cumulative = 1.97733e-20
DICPCG:  Solving for p, Initial residual = 0.0174478, Final residual = 8.78267e-07, No Iterations 124
time step continuity errors : sum local = 3.36885e-10, global = -9.56764e-20, cumulative = -7.59031e-20
ExecutionTime = 0.21 s  ClockTime = 0 s

Time = 0.01

Courant Number mean: 0.0442703 max: 0.778429
smoothSolver:  Solving for Ux, Initial residual = 0.031253, Final residual = 1.69119e-06, No Iterations 5
smoothSolver:  Solving for Uy, Initial residual = 0.0377244, Final residual = 2.81651e-06, No Iterations 5
DICPCG:  Solving for p, Initial residual = 0.0302338, Final residual = 0.00120517, No Iterations 46
time step continuity errors : sum local = 4.78927e-07, global = -2.74488e-21, cumulative = -7.86479e-20
DICPCG:  Solving for p, Initial residual = 0.014662, Final residual = 9.72615e-07, No Iterations 123
time step continuity errors : sum local = 3.81372e-10, global = 1.04873e-19, cumulative = 2.62254e-20
ExecutionTime = 0.23 s  ClockTime = 0 s

Time = 0.01125

Courant Number mean: 0.0472798 max: 0.794845
smoothSolver:  Solving for Ux, Initial residual = 0.026966, Final residual = 1.48668e-06, No Iterations 5
smoothSolver:  Solving for Uy, Initial residual = 0.0323289, Final residual = 2.42281e-06, No Iterations 5
DICPCG:  Solving for p, Initial residual = 0.0262242, Final residual = 0.00100335, No Iterations 46
time step continuity errors : sum local = 4.41428e-07, global = 1.08793e-21, cumulative = 2.73134e-20
DICPCG:  Solving for p, Initial residual = 0.0128339, Final residual = 8.04824e-07, No Iterations 123
time step continuity errors : sum local = 3.21759e-10, global = -1.11507e-20, cumulative = 1.61627e-20
ExecutionTime = 0.25 s  ClockTime = 0 s

Time = 0.0125

Courant Number mean: 0.0500559 max: 0.807853
smoothSolver:  Solving for Ux, Initial residual = 0.0236525, Final residual = 9.15306e-06, No Iterations 4
smoothSolver:  Solving for Uy, Initial residual = 0.0283627, Final residual = 2.1303e-06, No Iterations 5
DICPCG:  Solving for p, Initial residual = 0.0235084, Final residual = 0.00107134, No Iterations 45
time step continuity errors : sum local = 4.44575e-07, global = -5.83117e-20, cumulative = -4.21491e-20
DICPCG:  Solving for p, Initial residual = 0.0116727, Final residual = 9.96045e-07, No Iterations 122
time step continuity errors : sum local = 4.04172e-10, global = 8.2058e-20, cumulative = 3.99089e-20
ExecutionTime = 0.27 s  ClockTime = 1 s

Time = 0.01375

Courant Number mean: 0.0526214 max: 0.818482
smoothSolver:  Solving for Ux, Initial residual = 0.021097, Final residual = 8.26885e-06, No Iterations 4
smoothSolver:  Solving for Uy, Initial residual = 0.0252181, Final residual = 1.89698e-06, No Iterations 5
DICPCG:  Solving for p, Initial residual = 0.0213088, Final residual = 0.000926685, No Iterations 45
time step continuity errors : sum local = 4.0578e-07, global = -6.19074e-20, cumulative = -2.19984e-20
DICPCG:  Solving for p, Initial residual = 0.0107649, Final residual = 8.23706e-07, No Iterations 122
time step continuity errors : sum local = 3.3861e-10, global = 7.1638e-20, cumulative = 4.96395e-20
ExecutionTime = 0.3 s  ClockTime = 1 s

Time = 0.015

Courant Number mean: 0.0550087 max: 0.827379
smoothSolver:  Solving for Ux, Initial residual = 0.0190313, Final residual = 7.53602e-06, No Iterations 4
smoothSolver:  Solving for Uy, Initial residual = 0.0227381, Final residual = 1.71151e-06, No Iterations 5
DICPCG:  Solving for p, Initial residual = 0.0195571, Final residual = 0.000800352, No Iterations 45
time step continuity errors : sum local = 3.43652e-07, global = 9.08409e-20, cumulative = 1.4048e-19
DICPCG:  Solving for p, Initial residual = 0.00990991, Final residual = 9.56968e-07, No Iterations 120
time step continuity errors : sum local = 3.9808e-10, global = 1.23324e-20, cumulative = 1.52813e-19
ExecutionTime = 0.32 s  ClockTime = 1 s

Time = 0.01625

Courant Number mean: 0.0572343 max: 0.83497
smoothSolver:  Solving for Ux, Initial residual = 0.017334, Final residual = 6.93109e-06, No Iterations 4
smoothSolver:  Solving for Uy, Initial residual = 0.0206821, Final residual = 1.55719e-06, No Iterations 5
DICPCG:  Solving for p, Initial residual = 0.018155, Final residual = 0.000905013, No Iterations 44
time step continuity errors : sum local = 3.96102e-07, global = 1.05092e-19, cumulative = 2.57905e-19
DICPCG:  Solving for p, Initial residual = 0.00937195, Final residual = 8.77694e-07, No Iterations 116
time step continuity errors : sum local = 3.68238e-10, global = -9.94368e-20, cumulative = 1.58468e-19
ExecutionTime = 0.34 s  ClockTime = 1 s

Time = 0.0175

Courant Number mean: 0.0593209 max: 0.841556
smoothSolver:  Solving for Ux, Initial residual = 0.0159033, Final residual = 6.41131e-06, No Iterations 4
smoothSolver:  Solving for Uy, Initial residual = 0.0189853, Final residual = 9.53536e-06, No Iterations 4
DICPCG:  Solving for p, Initial residual = 0.0171129, Final residual = 0.000799025, No Iterations 44
time step continuity errors : sum local = 3.47853e-07, global = -7.71462e-20, cumulative = 8.13219e-20
DICPCG:  Solving for p, Initial residual = 0.00888137, Final residual = 8.48221e-07, No Iterations 115
time step continuity errors : sum local = 3.58528e-10, global = 5.48384e-20, cumulative = 1.3616e-19
ExecutionTime = 0.36 s  ClockTime = 1 s

Time = 0.01875

Courant Number mean: 0.0613159 max: 0.847335
smoothSolver:  Solving for Ux, Initial residual = 0.0147044, Final residual = 5.96673e-06, No Iterations 4
smoothSolver:  Solving for Uy, Initial residual = 0.017538, Final residual = 8.80456e-06, No Iterations 4
DICPCG:  Solving for p, Initial residual = 0.016029, Final residual = 0.00071442, No Iterations 44
time step continuity errors : sum local = 3.16853e-07, global = -2.92481e-20, cumulative = 1.06912e-19
DICPCG:  Solving for p, Initial residual = 0.00833887, Final residual = 7.06025e-07, No Iterations 115
time step continuity errors : sum local = 3.00362e-10, global = 7.98924e-20, cumulative = 1.86805e-19
ExecutionTime = 0.38 s  ClockTime = 1 s

Time = 0.02

Courant Number mean: 0.0632215 max: 0.852467
smoothSolver:  Solving for Ux, Initial residual = 0.013665, Final residual = 5.57906e-06, No Iterations 4
smoothSolver:  Solving for Uy, Initial residual = 0.0163044, Final residual = 8.17964e-06, No Iterations 4
DICPCG:  Solving for p, Initial residual = 0.015158, Final residual = 0.000648942, No Iterations 44
time step continuity errors : sum local = 2.87367e-07, global = -1.15159e-21, cumulative = 1.85653e-19
DICPCG:  Solving for p, Initial residual = 0.007898, Final residual = 9.45806e-07, No Iterations 114
time step continuity errors : sum local = 4.04271e-10, global = -5.90918e-20, cumulative = 1.26561e-19
ExecutionTime = 0.4 s  ClockTime = 1 s

Time = 0.02125

Courant Number mean: 0.0650378 max: 0.857064
smoothSolver:  Solving for Ux, Initial residual = 0.0127571, Final residual = 5.23881e-06, No Iterations 4
smoothSolver:  Solving for Uy, Initial residual = 0.015231, Final residual = 7.6351e-06, No Iterations 4
DICPCG:  Solving for p, Initial residual = 0.0143846, Final residual = 0.000596199, No Iterations 44
time step continuity errors : sum local = 2.67025e-07, global = 1.91664e-20, cumulative = 1.45728e-19
DICPCG:  Solving for p, Initial residual = 0.00749783, Final residual = 8.48617e-07, No Iterations 114
time step continuity errors : sum local = 3.64559e-10, global = -2.07672e-20, cumulative = 1.2496e-19
ExecutionTime = 0.42 s  ClockTime = 1 s

Time = 0.0225

Courant Number mean: 0.0667695 max: 0.861211
smoothSolver:  Solving for Ux, Initial residual = 0.0119536, Final residual = 4.93752e-06, No Iterations 4
smoothSolver:  Solving for Uy, Initial residual = 0.0142957, Final residual = 7.15911e-06, No Iterations 4
DICPCG:  Solving for p, Initial residual = 0.0137238, Final residual = 0.000681849, No Iterations 43
time step continuity errors : sum local = 3.03151e-07, global = -7.96711e-20, cumulative = 4.52893e-20
DICPCG:  Solving for p, Initial residual = 0.00721575, Final residual = 7.76611e-07, No Iterations 114
time step continuity errors : sum local = 3.35104e-10, global = -5.6857e-20, cumulative = -1.15677e-20
ExecutionTime = 0.43 s  ClockTime = 1 s

Time = 0.02375

Courant Number mean: 0.0684266 max: 0.864984
smoothSolver:  Solving for Ux, Initial residual = 0.0112462, Final residual = 4.6673e-06, No Iterations 4
smoothSolver:  Solving for Uy, Initial residual = 0.0134701, Final residual = 6.7384e-06, No Iterations 4
DICPCG:  Solving for p, Initial residual = 0.0132189, Final residual = 0.000637186, No Iterations 43
time step continuity errors : sum local = 2.85205e-07, global = 1.63401e-19, cumulative = 1.51833e-19
DICPCG:  Solving for p, Initial residual = 0.0069583, Final residual = 9.72939e-07, No Iterations 113
time step continuity errors : sum local = 4.21908e-10, global = 8.43012e-20, cumulative = 2.36135e-19
ExecutionTime = 0.45 s  ClockTime = 1 s

Time = 0.025

Courant Number mean: 0.0700107 max: 0.86843
smoothSolver:  Solving for Ux, Initial residual = 0.0106207, Final residual = 4.42312e-06, No Iterations 4
smoothSolver:  Solving for Uy, Initial residual = 0.0127381, Final residual = 6.36444e-06, No Iterations 4
DICPCG:  Solving for p, Initial residual = 0.0126931, Final residual = 0.000602099, No Iterations 43
time step continuity errors : sum local = 2.70097e-07, global = -1.67617e-19, cumulative = 6.8518e-20
DICPCG:  Solving for p, Initial residual = 0.00668515, Final residual = 9.27166e-07, No Iterations 113
time step continuity errors : sum local = 4.036e-10, global = -2.53836e-20, cumulative = 4.31345e-20
ExecutionTime = 0.5 s  ClockTime = 1 s

Time = 0.02625

Courant Number mean: 0.0715299 max: 0.8716
smoothSolver:  Solving for Ux, Initial residual = 0.0100595, Final residual = 4.20511e-06, No Iterations 4
smoothSolver:  Solving for Uy, Initial residual = 0.0120833, Final residual = 6.0294e-06, No Iterations 4
DICPCG:  Solving for p, Initial residual = 0.0122156, Final residual = 0.000571823, No Iterations 43
time step continuity errors : sum local = 2.57673e-07, global = -4.61198e-20, cumulative = -2.98539e-21
DICPCG:  Solving for p, Initial residual = 0.00642766, Final residual = 8.89823e-07, No Iterations 113
time step continuity errors : sum local = 3.88677e-10, global = -4.54357e-20, cumulative = -4.84211e-20
ExecutionTime = 0.52 s  ClockTime = 1 s

Time = 0.0275

Courant Number mean: 0.072996 max: 0.874526
smoothSolver:  Solving for Ux, Initial residual = 0.00955326, Final residual = 4.00806e-06, No Iterations 4
smoothSolver:  Solving for Uy, Initial residual = 0.0114948, Final residual = 5.72825e-06, No Iterations 4
DICPCG:  Solving for p, Initial residual = 0.0118558, Final residual = 0.000548576, No Iterations 43
time step continuity errors : sum local = 2.47722e-07, global = -2.79732e-20, cumulative = -7.63944e-20
DICPCG:  Solving for p, Initial residual = 0.00620823, Final residual = 8.58432e-07, No Iterations 113
time step continuity errors : sum local = 3.76189e-10, global = 5.77763e-20, cumulative = -1.86181e-20
ExecutionTime = 0.54 s  ClockTime = 1 s

Time = 0.02875

Courant Number mean: 0.0744226 max: 0.87724
smoothSolver:  Solving for Ux, Initial residual = 0.00909004, Final residual = 3.82887e-06, No Iterations 4
smoothSolver:  Solving for Uy, Initial residual = 0.0109633, Final residual = 5.45595e-06, No Iterations 4
DICPCG:  Solving for p, Initial residual = 0.0113906, Final residual = 0.000518668, No Iterations 43
time step continuity errors : sum local = 2.35125e-07, global = -2.24239e-19, cumulative = -2.42857e-19
DICPCG:  Solving for p, Initial residual = 0.00600169, Final residual = 8.4564e-07, No Iterations 113
time step continuity errors : sum local = 3.71671e-10, global = -6.39249e-20, cumulative = -3.06782e-19
ExecutionTime = 0.56 s  ClockTime = 1 s

Time = 0.03

Courant Number mean: 0.0758057 max: 0.879768
smoothSolver:  Solving for Ux, Initial residual = 0.00866662, Final residual = 3.66386e-06, No Iterations 4
smoothSolver:  Solving for Uy, Initial residual = 0.0104818, Final residual = 5.20872e-06, No Iterations 4
DICPCG:  Solving for p, Initial residual = 0.0110095, Final residual = 0.000495968, No Iterations 43
time step continuity errors : sum local = 2.25388e-07, global = -7.4708e-21, cumulative = -3.14252e-19
DICPCG:  Solving for p, Initial residual = 0.00580641, Final residual = 9.89673e-07, No Iterations 112
time step continuity errors : sum local = 4.36704e-10, global = -3.34931e-21, cumulative = -3.17602e-19
ExecutionTime = 0.58 s  ClockTime = 1 s

Time = 0.03125

Courant Number mean: 0.0771443 max: 0.882127
smoothSolver:  Solving for Ux, Initial residual = 0.00828213, Final residual = 3.51088e-06, No Iterations 4
smoothSolver:  Solving for Uy, Initial residual = 0.0100428, Final residual = 4.9831e-06, No Iterations 4
DICPCG:  Solving for p, Initial residual = 0.01068, Final residual = 0.000473612, No Iterations 43
time step continuity errors : sum local = 2.15893e-07, global = -8.6567e-20, cumulative = -4.04169e-19
DICPCG:  Solving for p, Initial residual = 0.00562926, Final residual = 9.43722e-07, No Iterations 112
time step continuity errors : sum local = 4.17508e-10, global = 8.26272e-20, cumulative = -3.21542e-19
ExecutionTime = 0.6 s  ClockTime = 1 s

Time = 0.0325

Courant Number mean: 0.0784409 max: 0.884343
smoothSolver:  Solving for Ux, Initial residual = 0.00793029, Final residual = 3.36856e-06, No Iterations 4
smoothSolver:  Solving for Uy, Initial residual = 0.00964183, Final residual = 4.77658e-06, No Iterations 4
DICPCG:  Solving for p, Initial residual = 0.0103859, Final residual = 0.000454545, No Iterations 43
time step continuity errors : sum local = 2.07686e-07, global = -4.95778e-20, cumulative = -3.71119e-19
DICPCG:  Solving for p, Initial residual = 0.00546585, Final residual = 8.96084e-07, No Iterations 112
time step continuity errors : sum local = 3.97363e-10, global = -6.57487e-20, cumulative = -4.36868e-19
ExecutionTime = 0.62 s  ClockTime = 1 s

Time = 0.03375

Courant Number mean: 0.0796959 max: 0.886422
smoothSolver:  Solving for Ux, Initial residual = 0.00760531, Final residual = 3.23749e-06, No Iterations 4
smoothSolver:  Solving for Uy, Initial residual = 0.00927346, Final residual = 4.58699e-06, No Iterations 4
DICPCG:  Solving for p, Initial residual = 0.0101316, Final residual = 0.000434682, No Iterations 43
time step continuity errors : sum local = 1.99148e-07, global = -3.40026e-20, cumulative = -4.70871e-19
DICPCG:  Solving for p, Initial residual = 0.00531225, Final residual = 8.60362e-07, No Iterations 112
time step continuity errors : sum local = 3.82306e-10, global = 1.55806e-19, cumulative = -3.15065e-19
ExecutionTime = 0.64 s  ClockTime = 1 s

Time = 0.035

Courant Number mean: 0.0809119 max: 0.888388
smoothSolver:  Solving for Ux, Initial residual = 0.0073039, Final residual = 3.11709e-06, No Iterations 4
smoothSolver:  Solving for Uy, Initial residual = 0.00893407, Final residual = 4.41224e-06, No Iterations 4
DICPCG:  Solving for p, Initial residual = 0.00987984, Final residual = 0.000418633, No Iterations 43
time step continuity errors : sum local = 1.92214e-07, global = -4.05007e-20, cumulative = -3.55565e-19
DICPCG:  Solving for p, Initial residual = 0.00517668, Final residual = 9.81188e-07, No Iterations 111
time step continuity errors : sum local = 4.36943e-10, global = 2.03746e-19, cumulative = -1.5182e-19
ExecutionTime = 0.66 s  ClockTime = 1 s

Time = 0.03625

Courant Number mean: 0.0820906 max: 0.890242
smoothSolver:  Solving for Ux, Initial residual = 0.00702281, Final residual = 3.00626e-06, No Iterations 4
smoothSolver:  Solving for Uy, Initial residual = 0.00862046, Final residual = 4.25072e-06, No Iterations 4
DICPCG:  Solving for p, Initial residual = 0.00964485, Final residual = 0.000401955, No Iterations 43
time step continuity errors : sum local = 1.84987e-07, global = -2.29252e-21, cumulative = -1.54112e-19
DICPCG:  Solving for p, Initial residual = 0.00504877, Final residual = 9.42845e-07, No Iterations 111
time step continuity errors : sum local = 4.21096e-10, global = -8.87809e-20, cumulative = -2.42893e-19
ExecutionTime = 0.67 s  ClockTime = 1 s

Time = 0.0375

Courant Number mean: 0.0832355 max: 0.892006
smoothSolver:  Solving for Ux, Initial residual = 0.0067624, Final residual = 2.90267e-06, No Iterations 4
smoothSolver:  Solving for Uy, Initial residual = 0.00833018, Final residual = 4.10094e-06, No Iterations 4
DICPCG:  Solving for p, Initial residual = 0.00942118, Final residual = 0.000390504, No Iterations 43
time step continuity errors : sum local = 1.8003e-07, global = -1.43628e-19, cumulative = -3.86521e-19
DICPCG:  Solving for p, Initial residual = 0.00493449, Final residual = 9.05125e-07, No Iterations 111
time step continuity errors : sum local = 4.0538e-10, global = -1.90995e-19, cumulative = -5.77516e-19
ExecutionTime = 0.69 s  ClockTime = 1 s

Time = 0.03875

Courant Number mean: 0.0843461 max: 0.89368
smoothSolver:  Solving for Ux, Initial residual = 0.00652297, Final residual = 2.80513e-06, No Iterations 4
smoothSolver:  Solving for Uy, Initial residual = 0.00806077, Final residual = 3.96183e-06, No Iterations 4
DICPCG:  Solving for p, Initial residual = 0.00919771, Final residual = 0.000455701, No Iterations 42
time step continuity errors : sum local = 2.09157e-07, global = 4.75779e-20, cumulative = -5.29938e-19
DICPCG:  Solving for p, Initial residual = 0.00486519, Final residual = 8.67547e-07, No Iterations 111
time step continuity errors : sum local = 3.89527e-10, global = 2.43336e-19, cumulative = -2.86602e-19
ExecutionTime = 0.71 s  ClockTime = 1 s

Time = 0.04

Courant Number mean: 0.0854296 max: 0.895277
smoothSolver:  Solving for Ux, Initial residual = 0.00629931, Final residual = 2.71294e-06, No Iterations 4
smoothSolver:  Solving for Uy, Initial residual = 0.00781035, Final residual = 3.83286e-06, No Iterations 4
DICPCG:  Solving for p, Initial residual = 0.00918153, Final residual = 0.000448645, No Iterations 42
time step continuity errors : sum local = 2.0608e-07, global = -8.75548e-20, cumulative = -3.74157e-19
DICPCG:  Solving for p, Initial residual = 0.00479945, Final residual = 8.33555e-07, No Iterations 111
time step continuity errors : sum local = 3.75202e-10, global = 1.27821e-19, cumulative = -2.46337e-19
ExecutionTime = 0.73 s  ClockTime = 1 s

Time = 0.04125

Courant Number mean: 0.0864938 max: 0.896803
smoothSolver:  Solving for Ux, Initial residual = 0.00608968, Final residual = 2.62637e-06, No Iterations 4
smoothSolver:  Solving for Uy, Initial residual = 0.00757557, Final residual = 3.71182e-06, No Iterations 4
DICPCG:  Solving for p, Initial residual = 0.00881808, Final residual = 0.000436129, No Iterations 42
time step continuity errors : sum local = 2.00754e-07, global = 2.34128e-20, cumulative = -2.22924e-19
DICPCG:  Solving for p, Initial residual = 0.00472277, Final residual = 7.99742e-07, No Iterations 111
time step continuity errors : sum local = 3.60939e-10, global = 3.38084e-19, cumulative = 1.1516e-19
ExecutionTime = 0.75 s  ClockTime = 1 s

Time = 0.0425

Courant Number mean: 0.0875358 max: 0.898264
smoothSolver:  Solving for Ux, Initial residual = 0.0058913, Final residual = 2.54471e-06, No Iterations 4
smoothSolver:  Solving for Uy, Initial residual = 0.00735623, Final residual = 3.59866e-06, No Iterations 4
DICPCG:  Solving for p, Initial residual = 0.00864396, Final residual = 0.000424275, No Iterations 42
time step continuity errors : sum local = 1.95567e-07, global = 1.44201e-19, cumulative = 2.59362e-19
DICPCG:  Solving for p, Initial residual = 0.00463042, Final residual = 7.79135e-07, No Iterations 111
time step continuity errors : sum local = 3.52532e-10, global = -7.11587e-20, cumulative = 1.88203e-19
ExecutionTime = 0.77 s  ClockTime = 1 s

Time = 0.04375

Courant Number mean: 0.088554 max: 0.89967
smoothSolver:  Solving for Ux, Initial residual = 0.00570402, Final residual = 2.46872e-06, No Iterations 4
smoothSolver:  Solving for Uy, Initial residual = 0.00715083, Final residual = 3.49258e-06, No Iterations 4
DICPCG:  Solving for p, Initial residual = 0.00847731, Final residual = 0.000414039, No Iterations 42
time step continuity errors : sum local = 1.91158e-07, global = -2.22088e-20, cumulative = 1.65994e-19
DICPCG:  Solving for p, Initial residual = 0.00454079, Final residual = 8.07988e-07, No Iterations 111
time step continuity errors : sum local = 3.66445e-10, global = 9.45671e-20, cumulative = 2.60561e-19
ExecutionTime = 0.79 s  ClockTime = 1 s

Time = 0.045

Courant Number mean: 0.0895477 max: 0.901023
smoothSolver:  Solving for Ux, Initial residual = 0.00552743, Final residual = 2.39735e-06, No Iterations 4
smoothSolver:  Solving for Uy, Initial residual = 0.00695806, Final residual = 3.39306e-06, No Iterations 4
DICPCG:  Solving for p, Initial residual = 0.00833505, Final residual = 0.000402989, No Iterations 42
time step continuity errors : sum local = 1.86325e-07, global = 1.78561e-19, cumulative = 4.39122e-19
DICPCG:  Solving for p, Initial residual = 0.0044531, Final residual = 8.57107e-07, No Iterations 111
time step continuity errors : sum local = 3.8941e-10, global = 1.12296e-20, cumulative = 4.50352e-19
ExecutionTime = 0.81 s  ClockTime = 1 s

Time = 0.04625

Courant Number mean: 0.0905184 max: 0.902326
smoothSolver:  Solving for Ux, Initial residual = 0.00536205, Final residual = 2.32948e-06, No Iterations 4
smoothSolver:  Solving for Uy, Initial residual = 0.00677674, Final residual = 3.29937e-06, No Iterations 4
DICPCG:  Solving for p, Initial residual = 0.00818967, Final residual = 0.000393189, No Iterations 42
time step continuity errors : sum local = 1.82085e-07, global = -5.35324e-20, cumulative = 3.9682e-19
DICPCG:  Solving for p, Initial residual = 0.00437212, Final residual = 8.85279e-07, No Iterations 111
time step continuity errors : sum local = 4.02838e-10, global = 6.34912e-20, cumulative = 4.60311e-19
ExecutionTime = 0.83 s  ClockTime = 1 s

Time = 0.0475

Courant Number mean: 0.091467 max: 0.903587
smoothSolver:  Solving for Ux, Initial residual = 0.00520651, Final residual = 2.26497e-06, No Iterations 4
smoothSolver:  Solving for Uy, Initial residual = 0.00660572, Final residual = 3.21103e-06, No Iterations 4
DICPCG:  Solving for p, Initial residual = 0.00804787, Final residual = 0.00038396, No Iterations 42
time step continuity errors : sum local = 1.78079e-07, global = -2.04362e-20, cumulative = 4.39875e-19
DICPCG:  Solving for p, Initial residual = 0.0042957, Final residual = 9.00932e-07, No Iterations 111
time step continuity errors : sum local = 4.10575e-10, global = 6.88621e-20, cumulative = 5.08737e-19
ExecutionTime = 0.85 s  ClockTime = 1 s

Time = 0.04875

Courant Number mean: 0.0923939 max: 0.904806
smoothSolver:  Solving for Ux, Initial residual = 0.00505941, Final residual = 2.20348e-06, No Iterations 4
smoothSolver:  Solving for Uy, Initial residual = 0.00644412, Final residual = 3.12754e-06, No Iterations 4
DICPCG:  Solving for p, Initial residual = 0.00790845, Final residual = 0.000376154, No Iterations 42
time step continuity errors : sum local = 1.74732e-07, global = -3.89e-20, cumulative = 4.69837e-19
DICPCG:  Solving for p, Initial residual = 0.00422137, Final residual = 9.16664e-07, No Iterations 111
time step continuity errors : sum local = 4.1836e-10, global = -2.89661e-19, cumulative = 1.80175e-19
ExecutionTime = 0.87 s  ClockTime = 1 s

Time = 0.05

Courant Number mean: 0.0933023 max: 0.905985
smoothSolver:  Solving for Ux, Initial residual = 0.00491982, Final residual = 2.1451e-06, No Iterations 4
smoothSolver:  Solving for Uy, Initial residual = 0.0062911, Final residual = 3.04875e-06, No Iterations 4
DICPCG:  Solving for p, Initial residual = 0.00776877, Final residual = 0.0003683, No Iterations 42
time step continuity errors : sum local = 1.71338e-07, global = 3.79517e-20, cumulative = 2.18127e-19
DICPCG:  Solving for p, Initial residual = 0.00415154, Final residual = 9.21765e-07, No Iterations 111
time step continuity errors : sum local = 4.213e-10, global = 1.00686e-19, cumulative = 3.18813e-19
ExecutionTime = 0.91 s  ClockTime = 1 s

Time = 0.05125

Courant Number mean: 0.0941901 max: 0.907126
smoothSolver:  Solving for Ux, Initial residual = 0.00478715, Final residual = 2.08955e-06, No Iterations 4
smoothSolver:  Solving for Uy, Initial residual = 0.00614658, Final residual = 2.97414e-06, No Iterations 4
DICPCG:  Solving for p, Initial residual = 0.00763233, Final residual = 0.000359722, No Iterations 42
time step continuity errors : sum local = 1.67618e-07, global = -5.86775e-20, cumulative = 2.60136e-19
DICPCG:  Solving for p, Initial residual = 0.00408549, Final residual = 9.17056e-07, No Iterations 111
time step continuity errors : sum local = 4.19759e-10, global = 3.10748e-20, cumulative = 2.91211e-19
ExecutionTime = 0.93 s  ClockTime = 1 s

Time = 0.0525

Courant Number mean: 0.0950582 max: 0.908232
smoothSolver:  Solving for Ux, Initial residual = 0.00466163, Final residual = 2.03723e-06, No Iterations 4
smoothSolver:  Solving for Uy, Initial residual = 0.00600919, Final residual = 2.90328e-06, No Iterations 4
DICPCG:  Solving for p, Initial residual = 0.0075016, Final residual = 0.000352873, No Iterations 42
time step continuity errors : sum local = 1.64666e-07, global = -1.72283e-20, cumulative = 2.73982e-19
DICPCG:  Solving for p, Initial residual = 0.00402736, Final residual = 9.42786e-07, No Iterations 111
time step continuity errors : sum local = 4.32177e-10, global = -9.1561e-21, cumulative = 2.64826e-19
ExecutionTime = 0.95 s  ClockTime = 1 s

Time = 0.05375

Courant Number mean: 0.0959063 max: 0.909298
smoothSolver:  Solving for Ux, Initial residual = 0.00454164, Final residual = 1.9878e-06, No Iterations 4
smoothSolver:  Solving for Uy, Initial residual = 0.00587884, Final residual = 2.83611e-06, No Iterations 4
DICPCG:  Solving for p, Initial residual = 0.00738675, Final residual = 0.000346049, No Iterations 42
time step continuity errors : sum local = 1.6173e-07, global = 4.39033e-20, cumulative = 3.0873e-19
DICPCG:  Solving for p, Initial residual = 0.00396239, Final residual = 9.53736e-07, No Iterations 111
time step continuity errors : sum local = 4.37849e-10, global = 1.18083e-19, cumulative = 4.26812e-19
ExecutionTime = 0.97 s  ClockTime = 1 s

Time = 0.055

Courant Number mean: 0.0967374 max: 0.910329
smoothSolver:  Solving for Ux, Initial residual = 0.00442759, Final residual = 1.94068e-06, No Iterations 4
smoothSolver:  Solving for Uy, Initial residual = 0.00575479, Final residual = 2.77224e-06, No Iterations 4
DICPCG:  Solving for p, Initial residual = 0.00728268, Final residual = 0.000338021, No Iterations 42
time step continuity errors : sum local = 1.58213e-07, global = 7.91056e-20, cumulative = 5.05918e-19
DICPCG:  Solving for p, Initial residual = 0.00390975, Final residual = 9.73844e-07, No Iterations 111
time step continuity errors : sum local = 4.47749e-10, global = 1.12601e-19, cumulative = 6.18519e-19
ExecutionTime = 0.99 s  ClockTime = 1 s

Time = 0.05625

Courant Number mean: 0.097554 max: 0.911332
smoothSolver:  Solving for Ux, Initial residual = 0.00431971, Final residual = 1.89539e-06, No Iterations 4
smoothSolver:  Solving for Uy, Initial residual = 0.00563671, Final residual = 2.71157e-06, No Iterations 4
DICPCG:  Solving for p, Initial residual = 0.0071758, Final residual = 0.000332629, No Iterations 42
time step continuity errors : sum local = 1.55909e-07, global = -9.13259e-21, cumulative = 6.09386e-19
DICPCG:  Solving for p, Initial residual = 0.00384856, Final residual = 9.79008e-07, No Iterations 111
time step continuity errors : sum local = 4.50782e-10, global = 1.69224e-19, cumulative = 7.7861e-19
ExecutionTime = 1.01 s  ClockTime = 1 s

Time = 0.0575

Courant Number mean: 0.0983608 max: 0.912303
smoothSolver:  Solving for Ux, Initial residual = 0.00421687, Final residual = 1.85186e-06, No Iterations 4
smoothSolver:  Solving for Uy, Initial residual = 0.00552412, Final residual = 2.65372e-06, No Iterations 4
DICPCG:  Solving for p, Initial residual = 0.0070766, Final residual = 0.000326177, No Iterations 42
time step continuity errors : sum local = 1.53092e-07, global = 5.63872e-20, cumulative = 8.34997e-19
DICPCG:  Solving for p, Initial residual = 0.00379291, Final residual = 9.89886e-07, No Iterations 111
time step continuity errors : sum local = 4.56445e-10, global = -1.31621e-19, cumulative = 7.03376e-19
ExecutionTime = 1.03 s  ClockTime = 1 s

Time = 0.05875

Courant Number mean: 0.0991548 max: 0.913242
smoothSolver:  Solving for Ux, Initial residual = 0.00411857, Final residual = 1.8102e-06, No Iterations 4
smoothSolver:  Solving for Uy, Initial residual = 0.00541685, Final residual = 2.59844e-06, No Iterations 4
DICPCG:  Solving for p, Initial residual = 0.00697855, Final residual = 0.000346769, No Iterations 41
time step continuity errors : sum local = 1.62455e-07, global = 8.22108e-20, cumulative = 7.85587e-19
DICPCG:  Solving for p, Initial residual = 0.00374816, Final residual = 9.84368e-07, No Iterations 111
time step continuity errors : sum local = 4.54518e-10, global = -2.17195e-20, cumulative = 7.63867e-19
ExecutionTime = 1.05 s  ClockTime = 1 s

Time = 0.06

Courant Number mean: 0.0999366 max: 0.914152
smoothSolver:  Solving for Ux, Initial residual = 0.00402415, Final residual = 1.77011e-06, No Iterations 4
smoothSolver:  Solving for Uy, Initial residual = 0.00531493, Final residual = 2.54599e-06, No Iterations 4
DICPCG:  Solving for p, Initial residual = 0.00689801, Final residual = 0.000340237, No Iterations 41
time step continuity errors : sum local = 1.5946e-07, global = -2.41582e-20, cumulative = 7.39709e-19
DICPCG:  Solving for p, Initial residual = 0.00372448, Final residual = 8.43519e-07, No Iterations 112
time step continuity errors : sum local = 3.90241e-10, global = 1.60916e-19, cumulative = 9.00625e-19
ExecutionTime = 1.07 s  ClockTime = 1 s

Time = 0.06125

Courant Number mean: 0.100705 max: 0.915033
smoothSolver:  Solving for Ux, Initial residual = 0.00393382, Final residual = 1.73234e-06, No Iterations 4
smoothSolver:  Solving for Uy, Initial residual = 0.00521669, Final residual = 2.49546e-06, No Iterations 4
DICPCG:  Solving for p, Initial residual = 0.00679939, Final residual = 0.000331156, No Iterations 41
time step continuity errors : sum local = 1.55515e-07, global = 3.26006e-20, cumulative = 9.33226e-19
DICPCG:  Solving for p, Initial residual = 0.00367298, Final residual = 8.35176e-07, No Iterations 112
time step continuity errors : sum local = 3.86911e-10, global = 3.76486e-21, cumulative = 9.36991e-19
ExecutionTime = 1.08 s  ClockTime = 1 s

Time = 0.0625

Courant Number mean: 0.101462 max: 0.915886
smoothSolver:  Solving for Ux, Initial residual = 0.00384698, Final residual = 1.69593e-06, No Iterations 4
smoothSolver:  Solving for Uy, Initial residual = 0.00512259, Final residual = 2.44712e-06, No Iterations 4
DICPCG:  Solving for p, Initial residual = 0.00670175, Final residual = 0.000323959, No Iterations 41
time step continuity errors : sum local = 1.52283e-07, global = -1.21162e-20, cumulative = 9.24875e-19
DICPCG:  Solving for p, Initial residual = 0.00362435, Final residual = 8.45964e-07, No Iterations 112
time step continuity errors : sum local = 3.92441e-10, global = -3.42658e-20, cumulative = 8.90609e-19
ExecutionTime = 1.1 s  ClockTime = 1 s

Time = 0.06375

Courant Number mean: 0.102208 max: 0.916714
smoothSolver:  Solving for Ux, Initial residual = 0.00376324, Final residual = 1.66082e-06, No Iterations 4
smoothSolver:  Solving for Uy, Initial residual = 0.00503186, Final residual = 2.40073e-06, No Iterations 4
DICPCG:  Solving for p, Initial residual = 0.00660713, Final residual = 0.000315997, No Iterations 41
time step continuity errors : sum local = 1.48785e-07, global = -7.3884e-21, cumulative = 8.8322e-19
DICPCG:  Solving for p, Initial residual = 0.00357833, Final residual = 8.38776e-07, No Iterations 112
time step continuity errors : sum local = 3.89666e-10, global = 2.57496e-21, cumulative = 8.85795e-19
ExecutionTime = 1.12 s  ClockTime = 1 s

Time = 0.065

Courant Number mean: 0.102941 max: 0.917516
smoothSolver:  Solving for Ux, Initial residual = 0.00368365, Final residual = 1.62704e-06, No Iterations 4
smoothSolver:  Solving for Uy, Initial residual = 0.00494485, Final residual = 2.35632e-06, No Iterations 4
DICPCG:  Solving for p, Initial residual = 0.006521, Final residual = 0.000309605, No Iterations 41
time step continuity errors : sum local = 1.45937e-07, global = 2.64348e-20, cumulative = 9.1223e-19
DICPCG:  Solving for p, Initial residual = 0.00353279, Final residual = 8.46136e-07, No Iterations 112
time step continuity errors : sum local = 3.93607e-10, global = -5.79726e-20, cumulative = 8.54258e-19
ExecutionTime = 1.14 s  ClockTime = 1 s

Time = 0.06625

Courant Number mean: 0.10366 max: 0.918295
smoothSolver:  Solving for Ux, Initial residual = 0.00360757, Final residual = 1.59459e-06, No Iterations 4
smoothSolver:  Solving for Uy, Initial residual = 0.00486156, Final residual = 2.31355e-06, No Iterations 4
DICPCG:  Solving for p, Initial residual = 0.00644061, Final residual = 0.000300954, No Iterations 41
time step continuity errors : sum local = 1.42089e-07, global = -7.34123e-20, cumulative = 7.80845e-19
DICPCG:  Solving for p, Initial residual = 0.00348761, Final residual = 8.30332e-07, No Iterations 112
time step continuity errors : sum local = 3.86801e-10, global = -1.37687e-19, cumulative = 6.43158e-19
ExecutionTime = 1.16 s  ClockTime = 1 s

Time = 0.0675

Courant Number mean: 0.104368 max: 0.919051
smoothSolver:  Solving for Ux, Initial residual = 0.00353481, Final residual = 1.5635e-06, No Iterations 4
smoothSolver:  Solving for Uy, Initial residual = 0.00478128, Final residual = 2.27257e-06, No Iterations 4
DICPCG:  Solving for p, Initial residual = 0.00636319, Final residual = 0.000294794, No Iterations 41
time step continuity errors : sum local = 1.39348e-07, global = 7.12862e-20, cumulative = 7.14445e-19
DICPCG:  Solving for p, Initial residual = 0.00344367, Final residual = 8.34544e-07, No Iterations 112
time step continuity errors : sum local = 3.893e-10, global = -2.07212e-20, cumulative = 6.93723e-19
ExecutionTime = 1.18 s  ClockTime = 1 s

Time = 0.06875

Courant Number mean: 0.105066 max: 0.919785
smoothSolver:  Solving for Ux, Initial residual = 0.00346526, Final residual = 1.5337e-06, No Iterations 4
smoothSolver:  Solving for Uy, Initial residual = 0.00470389, Final residual = 2.23333e-06, No Iterations 4
DICPCG:  Solving for p, Initial residual = 0.00628842, Final residual = 0.000286469, No Iterations 41
time step continuity errors : sum local = 1.35615e-07, global = 9.60098e-20, cumulative = 7.89733e-19
DICPCG:  Solving for p, Initial residual = 0.00340062, Final residual = 8.17586e-07, No Iterations 112
time step continuity errors : sum local = 3.81927e-10, global = -6.60023e-20, cumulative = 7.23731e-19
ExecutionTime = 1.2 s  ClockTime = 1 s

Time = 0.07

Courant Number mean: 0.105751 max: 0.920498
smoothSolver:  Solving for Ux, Initial residual = 0.00339803, Final residual = 1.50544e-06, No Iterations 4
smoothSolver:  Solving for Uy, Initial residual = 0.00462944, Final residual = 2.19551e-06, No Iterations 4
DICPCG:  Solving for p, Initial residual = 0.00621519, Final residual = 0.000309722, No Iterations 40
time step continuity errors : sum local = 1.46332e-07, global = -9.37609e-20, cumulative = 6.2997e-19
DICPCG:  Solving for p, Initial residual = 0.00335558, Final residual = 8.28992e-07, No Iterations 112
time step continuity errors : sum local = 3.87771e-10, global = -8.62621e-20, cumulative = 5.43708e-19
ExecutionTime = 1.22 s  ClockTime = 2 s

Time = 0.07125

Courant Number mean: 0.106425 max: 0.921191
smoothSolver:  Solving for Ux, Initial residual = 0.00333277, Final residual = 1.4781e-06, No Iterations 4
smoothSolver:  Solving for Uy, Initial residual = 0.0045581, Final residual = 2.15926e-06, No Iterations 4
DICPCG:  Solving for p, Initial residual = 0.00614798, Final residual = 0.000303031, No Iterations 40
time step continuity errors : sum local = 1.4322e-07, global = 3.14238e-20, cumulative = 5.75132e-19
DICPCG:  Solving for p, Initial residual = 0.00333695, Final residual = 8.26053e-07, No Iterations 112
time step continuity errors : sum local = 3.86925e-10, global = -3.12146e-20, cumulative = 5.43917e-19
ExecutionTime = 1.24 s  ClockTime = 2 s

Time = 0.0725

Courant Number mean: 0.107088 max: 0.921864
smoothSolver:  Solving for Ux, Initial residual = 0.0032701, Final residual = 9.90542e-06, No Iterations 3
smoothSolver:  Solving for Uy, Initial residual = 0.00448862, Final residual = 2.12395e-06, No Iterations 4
DICPCG:  Solving for p, Initial residual = 0.00607636, Final residual = 0.000302186, No Iterations 40
time step continuity errors : sum local = 1.42748e-07, global = 4.83875e-20, cumulative = 5.92305e-19
DICPCG:  Solving for p, Initial residual = 0.00330253, Final residual = 7.9297e-07, No Iterations 112
time step continuity errors : sum local = 3.71856e-10, global = -4.32745e-21, cumulative = 5.87977e-19
ExecutionTime = 1.26 s  ClockTime = 2 s

Time = 0.07375

Courant Number mean: 0.107741 max: 0.922519
smoothSolver:  Solving for Ux, Initial residual = 0.00320959, Final residual = 9.7294e-06, No Iterations 3
smoothSolver:  Solving for Uy, Initial residual = 0.00442171, Final residual = 2.08993e-06, No Iterations 4
DICPCG:  Solving for p, Initial residual = 0.00600612, Final residual = 0.000295975, No Iterations 40
time step continuity errors : sum local = 1.40108e-07, global = 1.35705e-19, cumulative = 7.23682e-19
DICPCG:  Solving for p, Initial residual = 0.0032655, Final residual = 7.86341e-07, No Iterations 112
time step continuity errors : sum local = 3.69239e-10, global = 1.20947e-20, cumulative = 7.35777e-19
ExecutionTime = 1.28 s  ClockTime = 2 s

Time = 0.075

Courant Number mean: 0.108383 max: 0.923156
smoothSolver:  Solving for Ux, Initial residual = 0.00315198, Final residual = 9.55965e-06, No Iterations 3
smoothSolver:  Solving for Uy, Initial residual = 0.00435721, Final residual = 2.05718e-06, No Iterations 4
DICPCG:  Solving for p, Initial residual = 0.00593367, Final residual = 0.000289504, No Iterations 40
time step continuity errors : sum local = 1.37129e-07, global = -3.92161e-20, cumulative = 6.96561e-19
DICPCG:  Solving for p, Initial residual = 0.00322896, Final residual = 7.81122e-07, No Iterations 112
time step continuity errors : sum local = 3.67248e-10, global = -1.23352e-19, cumulative = 5.73209e-19
ExecutionTime = 1.31 s  ClockTime = 2 s

Time = 0.07625

Courant Number mean: 0.109021 max: 0.923775
smoothSolver:  Solving for Ux, Initial residual = 0.00309663, Final residual = 9.39573e-06, No Iterations 3
smoothSolver:  Solving for Uy, Initial residual = 0.0042947, Final residual = 2.02546e-06, No Iterations 4
DICPCG:  Solving for p, Initial residual = 0.00586245, Final residual = 0.000283446, No Iterations 40
time step continuity errors : sum local = 1.34474e-07, global = 3.89744e-21, cumulative = 5.77107e-19
DICPCG:  Solving for p, Initial residual = 0.0031933, Final residual = 9.98216e-07, No Iterations 111
time step continuity errors : sum local = 4.69409e-10, global = 2.43191e-19, cumulative = 8.20298e-19
ExecutionTime = 1.33 s  ClockTime = 2 s

Time = 0.0775

Courant Number mean: 0.109654 max: 0.924378
smoothSolver:  Solving for Ux, Initial residual = 0.00304326, Final residual = 9.23668e-06, No Iterations 3
smoothSolver:  Solving for Uy, Initial residual = 0.00423403, Final residual = 1.99476e-06, No Iterations 4
DICPCG:  Solving for p, Initial residual = 0.00579932, Final residual = 0.000289814, No Iterations 38
time step continuity errors : sum local = 1.36858e-07, global = 1.31319e-19, cumulative = 9.51617e-19
DICPCG:  Solving for p, Initial residual = 0.00313045, Final residual = 9.98604e-07, No Iterations 111
time step continuity errors : sum local = 4.70183e-10, global = -2.69557e-19, cumulative = 6.8206e-19
ExecutionTime = 1.35 s  ClockTime = 2 s

Time = 0.07875

Courant Number mean: 0.110281 max: 0.924964
smoothSolver:  Solving for Ux, Initial residual = 0.00299117, Final residual = 9.08267e-06, No Iterations 3
smoothSolver:  Solving for Uy, Initial residual = 0.00417581, Final residual = 1.96538e-06, No Iterations 4
DICPCG:  Solving for p, Initial residual = 0.00575848, Final residual = 0.000282809, No Iterations 38
time step continuity errors : sum local = 1.33411e-07, global = -2.95148e-20, cumulative = 6.52545e-19
DICPCG:  Solving for p, Initial residual = 0.00315361, Final residual = 9.97458e-07, No Iterations 111
time step continuity errors : sum local = 4.70237e-10, global = -1.98707e-19, cumulative = 4.53838e-19
ExecutionTime = 1.37 s  ClockTime = 2 s

Time = 0.08

Courant Number mean: 0.1109 max: 0.925534
smoothSolver:  Solving for Ux, Initial residual = 0.00294104, Final residual = 8.9387e-06, No Iterations 3
smoothSolver:  Solving for Uy, Initial residual = 0.0041184, Final residual = 1.93657e-06, No Iterations 4
DICPCG:  Solving for p, Initial residual = 0.00569759, Final residual = 0.0002765, No Iterations 38
time step continuity errors : sum local = 1.30811e-07, global = -9.43684e-20, cumulative = 3.5947e-19
DICPCG:  Solving for p, Initial residual = 0.00311825, Final residual = 9.88681e-07, No Iterations 111
time step continuity errors : sum local = 4.66678e-10, global = -6.24136e-20, cumulative = 2.97056e-19
ExecutionTime = 1.39 s  ClockTime = 2 s

Time = 0.08125

Courant Number mean: 0.111512 max: 0.926089
smoothSolver:  Solving for Ux, Initial residual = 0.00289236, Final residual = 8.79874e-06, No Iterations 3
smoothSolver:  Solving for Uy, Initial residual = 0.00406311, Final residual = 1.9088e-06, No Iterations 4
DICPCG:  Solving for p, Initial residual = 0.00564089, Final residual = 0.000270212, No Iterations 38
time step continuity errors : sum local = 1.27853e-07, global = 6.65945e-21, cumulative = 3.03716e-19
DICPCG:  Solving for p, Initial residual = 0.00308463, Final residual = 9.79829e-07, No Iterations 111
time step continuity errors : sum local = 4.63057e-10, global = 2.03344e-19, cumulative = 5.07059e-19
ExecutionTime = 1.41 s  ClockTime = 2 s

Time = 0.0825

Courant Number mean: 0.112117 max: 0.926629
smoothSolver:  Solving for Ux, Initial residual = 0.00284508, Final residual = 8.66171e-06, No Iterations 3
smoothSolver:  Solving for Uy, Initial residual = 0.00400942, Final residual = 1.88183e-06, No Iterations 4
DICPCG:  Solving for p, Initial residual = 0.0055818, Final residual = 0.0002768, No Iterations 37
time step continuity errors : sum local = 1.30918e-07, global = -3.39693e-20, cumulative = 4.7309e-19
DICPCG:  Solving for p, Initial residual = 0.00304644, Final residual = 9.78179e-07, No Iterations 111
time step continuity errors : sum local = 4.62895e-10, global = 2.60889e-19, cumulative = 7.33979e-19
ExecutionTime = 1.43 s  ClockTime = 2 s

Time = 0.08375

Courant Number mean: 0.112715 max: 0.927155
smoothSolver:  Solving for Ux, Initial residual = 0.00279907, Final residual = 8.52668e-06, No Iterations 3
smoothSolver:  Solving for Uy, Initial residual = 0.00395736, Final residual = 1.85585e-06, No Iterations 4
DICPCG:  Solving for p, Initial residual = 0.00553083, Final residual = 0.000269447, No Iterations 37
time step continuity errors : sum local = 1.2756e-07, global = -1.49933e-20, cumulative = 7.18986e-19
DICPCG:  Solving for p, Initial residual = 0.00303268, Final residual = 9.69356e-07, No Iterations 111
time step continuity errors : sum local = 4.59336e-10, global = -1.78569e-19, cumulative = 5.40417e-19
ExecutionTime = 1.44 s  ClockTime = 2 s

Time = 0.085

Courant Number mean: 0.113306 max: 0.927668
smoothSolver:  Solving for Ux, Initial residual = 0.00275542, Final residual = 8.39586e-06, No Iterations 3
smoothSolver:  Solving for Uy, Initial residual = 0.00390649, Final residual = 1.83047e-06, No Iterations 4
DICPCG:  Solving for p, Initial residual = 0.00547436, Final residual = 0.000264919, No Iterations 37
time step continuity errors : sum local = 1.25563e-07, global = 2.97885e-19, cumulative = 8.38301e-19
DICPCG:  Solving for p, Initial residual = 0.00300201, Final residual = 9.6934e-07, No Iterations 111
time step continuity errors : sum local = 4.59951e-10, global = -1.55413e-19, cumulative = 6.82888e-19
ExecutionTime = 1.46 s  ClockTime = 2 s

Time = 0.08625

Courant Number mean: 0.113889 max: 0.928166
smoothSolver:  Solving for Ux, Initial residual = 0.00271347, Final residual = 8.26978e-06, No Iterations 3
smoothSolver:  Solving for Uy, Initial residual = 0.00385695, Final residual = 1.80589e-06, No Iterations 4
DICPCG:  Solving for p, Initial residual = 0.00542035, Final residual = 0.000259586, No Iterations 37
time step continuity errors : sum local = 1.23121e-07, global = 2.10094e-19, cumulative = 8.92982e-19
DICPCG:  Solving for p, Initial residual = 0.00297156, Final residual = 9.56734e-07, No Iterations 111
time step continuity errors : sum local = 4.54589e-10, global = -9.90993e-20, cumulative = 7.93883e-19
ExecutionTime = 1.48 s  ClockTime = 2 s

Time = 0.0875

Courant Number mean: 0.114465 max: 0.928652
smoothSolver:  Solving for Ux, Initial residual = 0.00267264, Final residual = 8.14881e-06, No Iterations 3
smoothSolver:  Solving for Uy, Initial residual = 0.0038089, Final residual = 1.78197e-06, No Iterations 4
DICPCG:  Solving for p, Initial residual = 0.00536483, Final residual = 0.000256019, No Iterations 37
time step continuity errors : sum local = 1.21656e-07, global = -3.00662e-20, cumulative = 7.63816e-19
DICPCG:  Solving for p, Initial residual = 0.00294533, Final residual = 9.56538e-07, No Iterations 111
time step continuity errors : sum local = 4.55095e-10, global = 1.20469e-19, cumulative = 8.84285e-19
ExecutionTime = 1.5 s  ClockTime = 2 s

Time = 0.08875

Courant Number mean: 0.115033 max: 0.929125
smoothSolver:  Solving for Ux, Initial residual = 0.00263311, Final residual = 8.03323e-06, No Iterations 3
smoothSolver:  Solving for Uy, Initial residual = 0.00376239, Final residual = 1.75873e-06, No Iterations 4
DICPCG:  Solving for p, Initial residual = 0.00530817, Final residual = 0.000250701, No Iterations 37
time step continuity errors : sum local = 1.19244e-07, global = 3.60337e-21, cumulative = 8.87889e-19
DICPCG:  Solving for p, Initial residual = 0.00291691, Final residual = 9.47437e-07, No Iterations 111
time step continuity errors : sum local = 4.51349e-10, global = -8.56074e-20, cumulative = 8.02281e-19
ExecutionTime = 1.52 s  ClockTime = 2 s

Time = 0.09

Courant Number mean: 0.115595 max: 0.929586
smoothSolver:  Solving for Ux, Initial residual = 0.0025948, Final residual = 7.92356e-06, No Iterations 3
smoothSolver:  Solving for Uy, Initial residual = 0.00371693, Final residual = 1.73609e-06, No Iterations 4
DICPCG:  Solving for p, Initial residual = 0.00525731, Final residual = 0.000246562, No Iterations 37
time step continuity errors : sum local = 1.17466e-07, global = -5.19198e-20, cumulative = 7.50362e-19
DICPCG:  Solving for p, Initial residual = 0.00289098, Final residual = 9.51679e-07, No Iterations 111
time step continuity errors : sum local = 4.5392e-10, global = 1.60858e-20, cumulative = 7.66447e-19
ExecutionTime = 1.54 s  ClockTime = 2 s

Time = 0.09125

Courant Number mean: 0.11615 max: 0.930034
smoothSolver:  Solving for Ux, Initial residual = 0.00255762, Final residual = 7.81621e-06, No Iterations 3
smoothSolver:  Solving for Uy, Initial residual = 0.0036726, Final residual = 1.71407e-06, No Iterations 4
DICPCG:  Solving for p, Initial residual = 0.00521094, Final residual = 0.000241105, No Iterations 37
time step continuity errors : sum local = 1.14987e-07, global = -8.88638e-20, cumulative = 6.77584e-19
DICPCG:  Solving for p, Initial residual = 0.00286568, Final residual = 9.51258e-07, No Iterations 111
time step continuity errors : sum local = 4.54248e-10, global = -5.30208e-20, cumulative = 6.24563e-19
ExecutionTime = 1.56 s  ClockTime = 2 s

Time = 0.0925

Courant Number mean: 0.116699 max: 0.930472
smoothSolver:  Solving for Ux, Initial residual = 0.00252138, Final residual = 7.7108e-06, No Iterations 3
smoothSolver:  Solving for Uy, Initial residual = 0.00362941, Final residual = 1.6926e-06, No Iterations 4
DICPCG:  Solving for p, Initial residual = 0.00516625, Final residual = 0.000238515, No Iterations 37
time step continuity errors : sum local = 1.1391e-07, global = -8.18437e-20, cumulative = 5.42719e-19
DICPCG:  Solving for p, Initial residual = 0.00284084, Final residual = 9.53491e-07, No Iterations 111
time step continuity errors : sum local = 4.55799e-10, global = -7.0013e-20, cumulative = 4.72706e-19
ExecutionTime = 1.58 s  ClockTime = 2 s

Time = 0.09375

Courant Number mean: 0.117241 max: 0.930902
smoothSolver:  Solving for Ux, Initial residual = 0.00248638, Final residual = 7.60721e-06, No Iterations 3
smoothSolver:  Solving for Uy, Initial residual = 0.00358709, Final residual = 1.6717e-06, No Iterations 4
DICPCG:  Solving for p, Initial residual = 0.00519143, Final residual = 0.000233134, No Iterations 37
time step continuity errors : sum local = 1.11454e-07, global = -1.2854e-19, cumulative = 3.44166e-19
DICPCG:  Solving for p, Initial residual = 0.00281338, Final residual = 9.31639e-07, No Iterations 111
time step continuity errors : sum local = 4.45817e-10, global = -1.69157e-19, cumulative = 1.75009e-19
ExecutionTime = 1.6 s  ClockTime = 2 s

Time = 0.095

Courant Number mean: 0.117775 max: 0.931326
smoothSolver:  Solving for Ux, Initial residual = 0.00245294, Final residual = 7.5063e-06, No Iterations 3
smoothSolver:  Solving for Uy, Initial residual = 0.00354563, Final residual = 1.65131e-06, No Iterations 4
DICPCG:  Solving for p, Initial residual = 0.00507038, Final residual = 0.000230011, No Iterations 37
time step continuity errors : sum local = 1.10125e-07, global = 2.96984e-20, cumulative = 2.04707e-19
DICPCG:  Solving for p, Initial residual = 0.00278554, Final residual = 9.36905e-07, No Iterations 111
time step continuity errors : sum local = 4.48908e-10, global = -2.75108e-19, cumulative = -7.04011e-20
ExecutionTime = 1.62 s  ClockTime = 2 s

Time = 0.09625

Courant Number mean: 0.118303 max: 0.931739
smoothSolver:  Solving for Ux, Initial residual = 0.00242042, Final residual = 7.40905e-06, No Iterations 3
smoothSolver:  Solving for Uy, Initial residual = 0.00350528, Final residual = 1.63147e-06, No Iterations 4
DICPCG:  Solving for p, Initial residual = 0.00502896, Final residual = 0.000225201, No Iterations 37
time step continuity errors : sum local = 1.07973e-07, global = 1.41312e-19, cumulative = 7.09111e-20
DICPCG:  Solving for p, Initial residual = 0.00276294, Final residual = 9.81836e-07, No Iterations 110
time step continuity errors : sum local = 4.7043e-10, global = 1.90298e-19, cumulative = 2.61209e-19
ExecutionTime = 1.64 s  ClockTime = 2 s

Time = 0.0975

Courant Number mean: 0.118832 max: 0.932143
smoothSolver:  Solving for Ux, Initial residual = 0.00238864, Final residual = 7.31513e-06, No Iterations 3
smoothSolver:  Solving for Uy, Initial residual = 0.0034659, Final residual = 1.61215e-06, No Iterations 4
DICPCG:  Solving for p, Initial residual = 0.00498179, Final residual = 0.000223831, No Iterations 37
time step continuity errors : sum local = 1.07454e-07, global = -1.38016e-19, cumulative = 1.23192e-19
DICPCG:  Solving for p, Initial residual = 0.00273775, Final residual = 9.72942e-07, No Iterations 110
time step continuity errors : sum local = 4.66718e-10, global = -7.8862e-20, cumulative = 4.43304e-20
ExecutionTime = 1.66 s  ClockTime = 2 s

Time = 0.09875

Courant Number mean: 0.119358 max: 0.932536
smoothSolver:  Solving for Ux, Initial residual = 0.00235785, Final residual = 7.22493e-06, No Iterations 3
smoothSolver:  Solving for Uy, Initial residual = 0.00342731, Final residual = 1.59326e-06, No Iterations 4
DICPCG:  Solving for p, Initial residual = 0.00493715, Final residual = 0.000217875, No Iterations 37
time step continuity errors : sum local = 1.04743e-07, global = -4.25681e-20, cumulative = 1.76223e-21
DICPCG:  Solving for p, Initial residual = 0.00271354, Final residual = 9.52787e-07, No Iterations 110
time step continuity errors : sum local = 4.57611e-10, global = -4.39345e-19, cumulative = -4.37583e-19
ExecutionTime = 1.67 s  ClockTime = 2 s

Time = 0.1

Courant Number mean: 0.119879 max: 0.93292
smoothSolver:  Solving for Ux, Initial residual = 0.00232792, Final residual = 7.13891e-06, No Iterations 3
smoothSolver:  Solving for Uy, Initial residual = 0.00338951, Final residual = 1.57494e-06, No Iterations 4
DICPCG:  Solving for p, Initial residual = 0.0048934, Final residual = 0.000215376, No Iterations 37
time step continuity errors : sum local = 1.03677e-07, global = -9.29829e-20, cumulative = -5.30566e-19
DICPCG:  Solving for p, Initial residual = 0.00269168, Final residual = 9.51733e-07, No Iterations 110
time step continuity errors : sum local = 4.57649e-10, global = -8.43472e-20, cumulative = -6.14913e-19
ExecutionTime = 1.71 s  ClockTime = 2 s

Time = 0.10125

Courant Number mean: 0.120396 max: 0.933295
smoothSolver:  Solving for Ux, Initial residual = 0.00229869, Final residual = 7.05455e-06, No Iterations 3
smoothSolver:  Solving for Uy, Initial residual = 0.0033527, Final residual = 1.55705e-06, No Iterations 4
DICPCG:  Solving for p, Initial residual = 0.00486113, Final residual = 0.000210702, No Iterations 37
time step continuity errors : sum local = 1.01571e-07, global = 1.45597e-19, cumulative = -4.69317e-19
DICPCG:  Solving for p, Initial residual = 0.00267103, Final residual = 9.38017e-07, No Iterations 110
time step continuity errors : sum local = 4.51594e-10, global = -2.38851e-20, cumulative = -4.93202e-19
ExecutionTime = 1.73 s  ClockTime = 2 s

Time = 0.1025

Courant Number mean: 0.120908 max: 0.933661
smoothSolver:  Solving for Ux, Initial residual = 0.00227036, Final residual = 6.97142e-06, No Iterations 3
smoothSolver:  Solving for Uy, Initial residual = 0.00331664, Final residual = 1.53954e-06, No Iterations 4
DICPCG:  Solving for p, Initial residual = 0.00481099, Final residual = 0.000209572, No Iterations 37
time step continuity errors : sum local = 1.01142e-07, global = -1.43555e-20, cumulative = -5.07557e-19
DICPCG:  Solving for p, Initial residual = 0.00264857, Final residual = 9.27161e-07, No Iterations 110
time step continuity errors : sum local = 4.46804e-10, global = -2.12287e-19, cumulative = -7.19844e-19
ExecutionTime = 1.75 s  ClockTime = 2 s

Time = 0.10375

Courant Number mean: 0.121416 max: 0.934017
smoothSolver:  Solving for Ux, Initial residual = 0.00224304, Final residual = 6.89004e-06, No Iterations 3
smoothSolver:  Solving for Uy, Initial residual = 0.00328143, Final residual = 1.52242e-06, No Iterations 4
DICPCG:  Solving for p, Initial residual = 0.0047606, Final residual = 0.000206537, No Iterations 37
time step continuity errors : sum local = 9.98051e-08, global = -2.64961e-19, cumulative = -9.84806e-19
DICPCG:  Solving for p, Initial residual = 0.00262576, Final residual = 9.21941e-07, No Iterations 110
time step continuity errors : sum local = 4.44781e-10, global = -1.14018e-19, cumulative = -1.09882e-18
ExecutionTime = 1.77 s  ClockTime = 2 s

Time = 0.105

Courant Number mean: 0.121918 max: 0.934365
smoothSolver:  Solving for Ux, Initial residual = 0.00221631, Final residual = 6.81054e-06, No Iterations 3
smoothSolver:  Solving for Uy, Initial residual = 0.00324701, Final residual = 1.50565e-06, No Iterations 4
DICPCG:  Solving for p, Initial residual = 0.00472217, Final residual = 0.000203819, No Iterations 37
time step continuity errors : sum local = 9.86178e-08, global = -1.03725e-19, cumulative = -1.20255e-18
DICPCG:  Solving for p, Initial residual = 0.00260465, Final residual = 9.13328e-07, No Iterations 110
time step continuity errors : sum local = 4.41074e-10, global = -4.49689e-20, cumulative = -1.24752e-18
ExecutionTime = 1.78 s  ClockTime = 2 s

Time = 0.10625

Courant Number mean: 0.122417 max: 0.934705
smoothSolver:  Solving for Ux, Initial residual = 0.00219019, Final residual = 6.73289e-06, No Iterations 3
smoothSolver:  Solving for Uy, Initial residual = 0.00321328, Final residual = 1.48924e-06, No Iterations 4
DICPCG:  Solving for p, Initial residual = 0.0047014, Final residual = 0.000234253, No Iterations 36
time step continuity errors : sum local = 1.13174e-07, global = 4.66569e-20, cumulative = -1.20086e-18
DICPCG:  Solving for p, Initial residual = 0.00259621, Final residual = 9.4275e-07, No Iterations 110
time step continuity errors : sum local = 4.55762e-10, global = 1.30073e-19, cumulative = -1.07079e-18
ExecutionTime = 1.8 s  ClockTime = 3 s

Time = 0.1075

Courant Number mean: 0.12291 max: 0.935036
smoothSolver:  Solving for Ux, Initial residual = 0.00216479, Final residual = 6.65785e-06, No Iterations 3
smoothSolver:  Solving for Uy, Initial residual = 0.0031803, Final residual = 9.99273e-06, No Iterations 3
DICPCG:  Solving for p, Initial residual = 0.00469567, Final residual = 0.000226937, No Iterations 36
time step continuity errors : sum local = 1.09879e-07, global = 5.58476e-20, cumulative = -1.01494e-18
DICPCG:  Solving for p, Initial residual = 0.00257362, Final residual = 9.4295e-07, No Iterations 110
time step continuity errors : sum local = 4.56039e-10, global = -1.25945e-19, cumulative = -1.14089e-18
ExecutionTime = 1.82 s  ClockTime = 3 s

Time = 0.10875

Courant Number mean: 0.123399 max: 0.935359
smoothSolver:  Solving for Ux, Initial residual = 0.0021405, Final residual = 6.58613e-06, No Iterations 3
smoothSolver:  Solving for Uy, Initial residual = 0.00314782, Final residual = 9.887e-06, No Iterations 3
DICPCG:  Solving for p, Initial residual = 0.00460828, Final residual = 0.000224021, No Iterations 36
time step continuity errors : sum local = 1.08557e-07, global = -2.03441e-19, cumulative = -1.34433e-18
DICPCG:  Solving for p, Initial residual = 0.00254946, Final residual = 9.33764e-07, No Iterations 110
time step continuity errors : sum local = 4.51959e-10, global = 4.08016e-20, cumulative = -1.30352e-18
ExecutionTime = 1.84 s  ClockTime = 3 s

Time = 0.11

Courant Number mean: 0.123882 max: 0.935674
smoothSolver:  Solving for Ux, Initial residual = 0.00211695, Final residual = 6.51751e-06, No Iterations 3
smoothSolver:  Solving for Uy, Initial residual = 0.00311598, Final residual = 9.78369e-06, No Iterations 3
DICPCG:  Solving for p, Initial residual = 0.00455988, Final residual = 0.000221635, No Iterations 36
time step continuity errors : sum local = 1.07553e-07, global = -5.34863e-20, cumulative = -1.35701e-18
DICPCG:  Solving for p, Initial residual = 0.00252947, Final residual = 9.28148e-07, No Iterations 110
time step continuity errors : sum local = 4.49621e-10, global = 2.04738e-20, cumulative = -1.33654e-18
ExecutionTime = 1.86 s  ClockTime = 3 s

Time = 0.11125

Courant Number mean: 0.12436 max: 0.935982
smoothSolver:  Solving for Ux, Initial residual = 0.002094, Final residual = 6.45108e-06, No Iterations 3
smoothSolver:  Solving for Uy, Initial residual = 0.00308474, Final residual = 9.68258e-06, No Iterations 3
DICPCG:  Solving for p, Initial residual = 0.00451535, Final residual = 0.000219258, No Iterations 36
time step continuity errors : sum local = 1.06499e-07, global = 1.804e-19, cumulative = -1.15614e-18
DICPCG:  Solving for p, Initial residual = 0.00250678, Final residual = 9.01843e-07, No Iterations 110
time step continuity errors : sum local = 4.37244e-10, global = 9.8845e-20, cumulative = -1.05729e-18
ExecutionTime = 1.87 s  ClockTime = 3 s

Time = 0.1125

Courant Number mean: 0.124834 max: 0.936281
smoothSolver:  Solving for Ux, Initial residual = 0.00207163, Final residual = 6.38589e-06, No Iterations 3
smoothSolver:  Solving for Uy, Initial residual = 0.00305402, Final residual = 9.58325e-06, No Iterations 3
DICPCG:  Solving for p, Initial residual = 0.00447904, Final residual = 0.000217015, No Iterations 36
time step continuity errors : sum local = 1.05537e-07, global = -9.84519e-20, cumulative = -1.15574e-18
DICPCG:  Solving for p, Initial residual = 0.00248778, Final residual = 8.88146e-07, No Iterations 110
time step continuity errors : sum local = 4.30944e-10, global = 1.32759e-19, cumulative = -1.02298e-18
ExecutionTime = 1.89 s  ClockTime = 3 s

Time = 0.11375

Courant Number mean: 0.125303 max: 0.936574
smoothSolver:  Solving for Ux, Initial residual = 0.00204981, Final residual = 6.32178e-06, No Iterations 3
smoothSolver:  Solving for Uy, Initial residual = 0.00302378, Final residual = 9.48567e-06, No Iterations 3
DICPCG:  Solving for p, Initial residual = 0.00444103, Final residual = 0.000214052, No Iterations 36
time step continuity errors : sum local = 1.04201e-07, global = 2.89061e-21, cumulative = -1.02009e-18
DICPCG:  Solving for p, Initial residual = 0.00246732, Final residual = 9.771e-07, No Iterations 109
time step continuity errors : sum local = 4.74522e-10, global = 1.52759e-19, cumulative = -8.67335e-19
ExecutionTime = 1.91 s  ClockTime = 3 s

Time = 0.115

Courant Number mean: 0.125767 max: 0.93686
smoothSolver:  Solving for Ux, Initial residual = 0.00202849, Final residual = 6.25882e-06, No Iterations 3
smoothSolver:  Solving for Uy, Initial residual = 0.00299409, Final residual = 9.39003e-06, No Iterations 3
DICPCG:  Solving for p, Initial residual = 0.00440661, Final residual = 0.000211574, No Iterations 36
time step continuity errors : sum local = 1.0311e-07, global = -6.79251e-20, cumulative = -9.3526e-19
DICPCG:  Solving for p, Initial residual = 0.00244934, Final residual = 9.52995e-07, No Iterations 109
time step continuity errors : sum local = 4.63271e-10, global = -1.31904e-19, cumulative = -1.06716e-18
ExecutionTime = 1.93 s  ClockTime = 3 s

Time = 0.11625

Courant Number mean: 0.126228 max: 0.937139
smoothSolver:  Solving for Ux, Initial residual = 0.00200756, Final residual = 6.197e-06, No Iterations 3
smoothSolver:  Solving for Uy, Initial residual = 0.00296501, Final residual = 9.29623e-06, No Iterations 3
DICPCG:  Solving for p, Initial residual = 0.0043706, Final residual = 0.000208759, No Iterations 36
time step continuity errors : sum local = 1.01847e-07, global = 1.70068e-19, cumulative = -8.97096e-19
DICPCG:  Solving for p, Initial residual = 0.00243034, Final residual = 9.32444e-07, No Iterations 109
time step continuity errors : sum local = 4.53721e-10, global = -2.56367e-19, cumulative = -1.15346e-18
ExecutionTime = 1.95 s  ClockTime = 3 s

Time = 0.1175

Courant Number mean: 0.126688 max: 0.937411
smoothSolver:  Solving for Ux, Initial residual = 0.00198724, Final residual = 6.13736e-06, No Iterations 3
smoothSolver:  Solving for Uy, Initial residual = 0.00293647, Final residual = 9.20447e-06, No Iterations 3
DICPCG:  Solving for p, Initial residual = 0.0043358, Final residual = 0.000206111, No Iterations 36
time step continuity errors : sum local = 1.00663e-07, global = 6.77577e-21, cumulative = -1.14669e-18
DICPCG:  Solving for p, Initial residual = 0.00241145, Final residual = 9.10874e-07, No Iterations 109
time step continuity errors : sum local = 4.43645e-10, global = -7.80432e-21, cumulative = -1.15449e-18
ExecutionTime = 1.97 s  ClockTime = 3 s

Time = 0.11875

Courant Number mean: 0.127146 max: 0.937677
smoothSolver:  Solving for Ux, Initial residual = 0.0019678, Final residual = 6.07957e-06, No Iterations 3
smoothSolver:  Solving for Uy, Initial residual = 0.00290848, Final residual = 9.11454e-06, No Iterations 3
DICPCG:  Solving for p, Initial residual = 0.00430216, Final residual = 0.000203598, No Iterations 36
time step continuity errors : sum local = 9.95392e-08, global = -4.92715e-20, cumulative = -1.20376e-18
DICPCG:  Solving for p, Initial residual = 0.00239257, Final residual = 8.8723e-07, No Iterations 109
time step continuity errors : sum local = 4.32526e-10, global = -4.64408e-20, cumulative = -1.2502e-18
ExecutionTime = 1.99 s  ClockTime = 3 s

Time = 0.12

Courant Number mean: 0.127601 max: 0.937946
smoothSolver:  Solving for Ux, Initial residual = 0.00194893, Final residual = 6.02377e-06, No Iterations 3
smoothSolver:  Solving for Uy, Initial residual = 0.00288102, Final residual = 9.02654e-06, No Iterations 3
DICPCG:  Solving for p, Initial residual = 0.00426938, Final residual = 0.000200707, No Iterations 36
time step continuity errors : sum local = 9.8228e-08, global = -2.61014e-21, cumulative = -1.25281e-18
DICPCG:  Solving for p, Initial residual = 0.00237419, Final residual = 8.70338e-07, No Iterations 109
time step continuity errors : sum local = 4.24666e-10, global = -1.23635e-19, cumulative = -1.37645e-18
ExecutionTime = 2.01 s  ClockTime = 3 s

Time = 0.12125

Courant Number mean: 0.128053 max: 0.938208
smoothSolver:  Solving for Ux, Initial residual = 0.00193053, Final residual = 5.97046e-06, No Iterations 3
smoothSolver:  Solving for Uy, Initial residual = 0.00285396, Final residual = 8.93998e-06, No Iterations 3
DICPCG:  Solving for p, Initial residual = 0.00423701, Final residual = 0.000199283, No Iterations 36
time step continuity errors : sum local = 9.76233e-08, global = -1.6873e-19, cumulative = -1.54518e-18
DICPCG:  Solving for p, Initial residual = 0.00235497, Final residual = 8.51984e-07, No Iterations 109
time step continuity errors : sum local = 4.16085e-10, global = 3.46738e-20, cumulative = -1.51051e-18
ExecutionTime = 2.03 s  ClockTime = 3 s

Time = 0.1225

Courant Number mean: 0.128501 max: 0.938465
smoothSolver:  Solving for Ux, Initial residual = 0.00191247, Final residual = 5.91825e-06, No Iterations 3
smoothSolver:  Solving for Uy, Initial residual = 0.0028274, Final residual = 8.85514e-06, No Iterations 3
DICPCG:  Solving for p, Initial residual = 0.00420387, Final residual = 0.00019646, No Iterations 36
time step continuity errors : sum local = 9.6343e-08, global = -2.5692e-19, cumulative = -1.76743e-18
DICPCG:  Solving for p, Initial residual = 0.00233486, Final residual = 8.24534e-07, No Iterations 109
time step continuity errors : sum local = 4.03029e-10, global = -1.0418e-20, cumulative = -1.77784e-18
ExecutionTime = 2.05 s  ClockTime = 3 s

Time = 0.12375

Courant Number mean: 0.128946 max: 0.938716
smoothSolver:  Solving for Ux, Initial residual = 0.00189475, Final residual = 5.86673e-06, No Iterations 3
smoothSolver:  Solving for Uy, Initial residual = 0.00280128, Final residual = 8.77157e-06, No Iterations 3
DICPCG:  Solving for p, Initial residual = 0.00416944, Final residual = 0.000194205, No Iterations 36
time step continuity errors : sum local = 9.53288e-08, global = -9.87972e-21, cumulative = -1.78772e-18
DICPCG:  Solving for p, Initial residual = 0.00231582, Final residual = 8.05191e-07, No Iterations 109
time step continuity errors : sum local = 3.93916e-10, global = 1.2478e-19, cumulative = -1.66294e-18
ExecutionTime = 2.06 s  ClockTime = 3 s

Time = 0.125

Courant Number mean: 0.129387 max: 0.938961
smoothSolver:  Solving for Ux, Initial residual = 0.00187727, Final residual = 5.81597e-06, No Iterations 3
smoothSolver:  Solving for Uy, Initial residual = 0.00277552, Final residual = 8.68935e-06, No Iterations 3
DICPCG:  Solving for p, Initial residual = 0.00413423, Final residual = 0.000190599, No Iterations 36
time step continuity errors : sum local = 9.36603e-08, global = -9.46307e-20, cumulative = -1.75757e-18
DICPCG:  Solving for p, Initial residual = 0.00229637, Final residual = 7.79752e-07, No Iterations 109
time step continuity errors : sum local = 3.81785e-10, global = -1.65099e-19, cumulative = -1.92267e-18
ExecutionTime = 2.1 s  ClockTime = 3 s

Time = 0.12625

Courant Number mean: 0.129826 max: 0.9392
smoothSolver:  Solving for Ux, Initial residual = 0.0018603, Final residual = 5.76591e-06, No Iterations 3
smoothSolver:  Solving for Uy, Initial residual = 0.00275023, Final residual = 8.60851e-06, No Iterations 3
DICPCG:  Solving for p, Initial residual = 0.00410046, Final residual = 0.000188273, No Iterations 36
time step continuity errors : sum local = 9.26044e-08, global = 7.342e-20, cumulative = -1.84925e-18
DICPCG:  Solving for p, Initial residual = 0.00227965, Final residual = 7.62156e-07, No Iterations 109
time step continuity errors : sum local = 3.73467e-10, global = -2.39178e-20, cumulative = -1.87317e-18
ExecutionTime = 2.12 s  ClockTime = 3 s

Time = 0.1275

Courant Number mean: 0.130261 max: 0.939433
smoothSolver:  Solving for Ux, Initial residual = 0.00184368, Final residual = 5.71762e-06, No Iterations 3
smoothSolver:  Solving for Uy, Initial residual = 0.00272524, Final residual = 8.52887e-06, No Iterations 3
DICPCG:  Solving for p, Initial residual = 0.0040693, Final residual = 0.000185596, No Iterations 36
time step continuity errors : sum local = 9.13791e-08, global = -1.34629e-19, cumulative = -2.0078e-18
DICPCG:  Solving for p, Initial residual = 0.0022631, Final residual = 9.95995e-07, No Iterations 108
time step continuity errors : sum local = 4.88285e-10, global = -1.44719e-21, cumulative = -2.00925e-18
ExecutionTime = 2.14 s  ClockTime = 3 s

Time = 0.12875

Courant Number mean: 0.130691 max: 0.939661
smoothSolver:  Solving for Ux, Initial residual = 0.00182791, Final residual = 5.67092e-06, No Iterations 3
smoothSolver:  Solving for Uy, Initial residual = 0.00270058, Final residual = 8.45032e-06, No Iterations 3
DICPCG:  Solving for p, Initial residual = 0.00403758, Final residual = 0.000201348, No Iterations 34
time step continuity errors : sum local = 9.8704e-08, global = 1.91063e-19, cumulative = -1.81818e-18
DICPCG:  Solving for p, Initial residual = 0.00222888, Final residual = 7.45671e-07, No Iterations 109
time step continuity errors : sum local = 3.6608e-10, global = -1.54898e-19, cumulative = -1.97308e-18
ExecutionTime = 2.15 s  ClockTime = 3 s

Time = 0.13

Courant Number mean: 0.131118 max: 0.939883
smoothSolver:  Solving for Ux, Initial residual = 0.00181244, Final residual = 5.62457e-06, No Iterations 3
smoothSolver:  Solving for Uy, Initial residual = 0.00267644, Final residual = 8.37363e-06, No Iterations 3
DICPCG:  Solving for p, Initial residual = 0.00401234, Final residual = 0.000194982, No Iterations 34
time step continuity errors : sum local = 9.57821e-08, global = -6.67431e-20, cumulative = -2.03983e-18
DICPCG:  Solving for p, Initial residual = 0.00224389, Final residual = 7.33411e-07, No Iterations 109
time step continuity errors : sum local = 3.60369e-10, global = -1.15884e-19, cumulative = -2.15571e-18
ExecutionTime = 2.17 s  ClockTime = 3 s

Time = 0.13125

Courant Number mean: 0.131541 max: 0.9401
smoothSolver:  Solving for Ux, Initial residual = 0.00179759, Final residual = 5.58086e-06, No Iterations 3
smoothSolver:  Solving for Uy, Initial residual = 0.00265248, Final residual = 8.29753e-06, No Iterations 3
DICPCG:  Solving for p, Initial residual = 0.00397908, Final residual = 0.000192127, No Iterations 34
time step continuity errors : sum local = 9.42848e-08, global = -7.10974e-20, cumulative = -2.22681e-18
DICPCG:  Solving for p, Initial residual = 0.00222385, Final residual = 9.89995e-07, No Iterations 108
time step continuity errors : sum local = 4.8656e-10, global = -2.11099e-19, cumulative = -2.43791e-18
ExecutionTime = 2.19 s  ClockTime = 3 s

Time = 0.1325

Courant Number mean: 0.13196 max: 0.940312
smoothSolver:  Solving for Ux, Initial residual = 0.00178296, Final residual = 5.53873e-06, No Iterations 3
smoothSolver:  Solving for Uy, Initial residual = 0.002629, Final residual = 8.22307e-06, No Iterations 3
DICPCG:  Solving for p, Initial residual = 0.00394703, Final residual = 0.000196982, No Iterations 33
time step continuity errors : sum local = 9.69807e-08, global = 3.24772e-20, cumulative = -2.40543e-18
DICPCG:  Solving for p, Initial residual = 0.00219945, Final residual = 7.06405e-07, No Iterations 109
time step continuity errors : sum local = 3.47569e-10, global = -1.03024e-20, cumulative = -2.41573e-18
ExecutionTime = 2.2 s  ClockTime = 3 s

Time = 0.13375

Courant Number mean: 0.132378 max: 0.940519
smoothSolver:  Solving for Ux, Initial residual = 0.00176849, Final residual = 5.49718e-06, No Iterations 3
smoothSolver:  Solving for Uy, Initial residual = 0.00260597, Final residual = 8.15011e-06, No Iterations 3
DICPCG:  Solving for p, Initial residual = 0.00392218, Final residual = 0.000192311, No Iterations 33
time step continuity errors : sum local = 9.47262e-08, global = 7.17515e-20, cumulative = -2.34398e-18
DICPCG:  Solving for p, Initial residual = 0.00219364, Final residual = 9.90505e-07, No Iterations 108
time step continuity errors : sum local = 4.87498e-10, global = 2.01159e-19, cumulative = -2.14282e-18
ExecutionTime = 2.22 s  ClockTime = 3 s

Time = 0.135

Courant Number mean: 0.132792 max: 0.940721
smoothSolver:  Solving for Ux, Initial residual = 0.00175444, Final residual = 5.45653e-06, No Iterations 3
smoothSolver:  Solving for Uy, Initial residual = 0.00258316, Final residual = 8.07813e-06, No Iterations 3
DICPCG:  Solving for p, Initial residual = 0.00388683, Final residual = 0.000191377, No Iterations 33
time step continuity errors : sum local = 9.42967e-08, global = -1.0682e-19, cumulative = -2.24964e-18
DICPCG:  Solving for p, Initial residual = 0.00217781, Final residual = 9.58729e-07, No Iterations 108
time step continuity errors : sum local = 4.72191e-10, global = -6.16311e-20, cumulative = -2.31127e-18
ExecutionTime = 2.24 s  ClockTime = 3 s

Time = 0.13625

Courant Number mean: 0.133204 max: 0.940918
smoothSolver:  Solving for Ux, Initial residual = 0.0017405, Final residual = 5.41613e-06, No Iterations 3
smoothSolver:  Solving for Uy, Initial residual = 0.00256083, Final residual = 8.00777e-06, No Iterations 3
DICPCG:  Solving for p, Initial residual = 0.00385531, Final residual = 0.000188662, No Iterations 33
time step continuity errors : sum local = 9.30078e-08, global = -7.03827e-20, cumulative = -2.38166e-18
DICPCG:  Solving for p, Initial residual = 0.00215926, Final residual = 9.3681e-07, No Iterations 108
[...]
DICPCG:  Solving for p, Initial residual = 1.2251e-06, Final residual = 8.04827e-07, No Iterations 7
time step continuity errors : sum local = 5.27336e-10, global = 6.12173e-20, cumulative = -2.28389e-19
ExecutionTime = 30.36 s  ClockTime = 34 s

Time = 2.9675

Courant Number mean: 0.257577 max: 0.951567
smoothSolver:  Solving for Ux, Initial residual = 1.2609e-06, Final residual = 1.2609e-06, No Iterations 0
smoothSolver:  Solving for Uy, Initial residual = 1.33013e-06, Final residual = 1.33013e-06, No Iterations 0
DICPCG:  Solving for p, Initial residual = 1.63719e-06, Final residual = 9.16349e-07, No Iterations 4
time step continuity errors : sum local = 5.8957e-10, global = -3.69439e-19, cumulative = -5.97828e-19
DICPCG:  Solving for p, Initial residual = 1.29713e-06, Final residual = 7.31445e-07, No Iterations 2
time step continuity errors : sum local = 4.91015e-10, global = -5.62887e-20, cumulative = -6.54117e-19
ExecutionTime = 30.36 s  ClockTime = 34 s

Time = 2.96875

Courant Number mean: 0.257578 max: 0.951567
smoothSolver:  Solving for Ux, Initial residual = 1.26162e-06, Final residual = 1.26162e-06, No Iterations 0
smoothSolver:  Solving for Uy, Initial residual = 1.32159e-06, Final residual = 1.32159e-06, No Iterations 0
DICPCG:  Solving for p, Initial residual = 1.66506e-06, Final residual = 8.20271e-07, No Iterations 9
time step continuity errors : sum local = 5.42893e-10, global = 2.24175e-19, cumulative = -4.29942e-19
DICPCG:  Solving for p, Initial residual = 1.0858e-06, Final residual = 9.05637e-07, No Iterations 2
time step continuity errors : sum local = 5.93028e-10, global = -4.34464e-19, cumulative = -8.64406e-19
ExecutionTime = 30.37 s  ClockTime = 34 s

Time = 2.97

Courant Number mean: 0.257578 max: 0.951567
smoothSolver:  Solving for Ux, Initial residual = 1.25483e-06, Final residual = 1.25483e-06, No Iterations 0
smoothSolver:  Solving for Uy, Initial residual = 1.32118e-06, Final residual = 1.32118e-06, No Iterations 0
DICPCG:  Solving for p, Initial residual = 1.6436e-06, Final residual = 8.92329e-07, No Iterations 2
time step continuity errors : sum local = 5.88828e-10, global = 6.03643e-20, cumulative = -8.04041e-19
DICPCG:  Solving for p, Initial residual = 1.37323e-06, Final residual = 7.25177e-07, No Iterations 4
time step continuity errors : sum local = 4.97482e-10, global = -3.26664e-20, cumulative = -8.36708e-19
ExecutionTime = 30.37 s  ClockTime = 34 s

Time = 2.97125

Courant Number mean: 0.257578 max: 0.951568
smoothSolver:  Solving for Ux, Initial residual = 1.25529e-06, Final residual = 1.25529e-06, No Iterations 0
smoothSolver:  Solving for Uy, Initial residual = 1.31548e-06, Final residual = 1.31548e-06, No Iterations 0
DICPCG:  Solving for p, Initial residual = 1.32327e-06, Final residual = 8.51501e-07, No Iterations 8
time step continuity errors : sum local = 5.71423e-10, global = 8.4374e-21, cumulative = -8.2827e-19
DICPCG:  Solving for p, Initial residual = 1.08953e-06, Final residual = 8.14455e-07, No Iterations 1
time step continuity errors : sum local = 5.49189e-10, global = -1.99378e-19, cumulative = -1.02765e-18
ExecutionTime = 30.37 s  ClockTime = 34 s

Time = 2.9725

Courant Number mean: 0.257579 max: 0.951568
smoothSolver:  Solving for Ux, Initial residual = 1.2496e-06, Final residual = 1.2496e-06, No Iterations 0
smoothSolver:  Solving for Uy, Initial residual = 1.31336e-06, Final residual = 1.31336e-06, No Iterations 0
DICPCG:  Solving for p, Initial residual = 1.42738e-06, Final residual = 7.48446e-07, No Iterations 3
time step continuity errors : sum local = 5.17086e-10, global = 1.46257e-20, cumulative = -1.01302e-18
DICPCG:  Solving for p, Initial residual = 1.08293e-06, Final residual = 8.08306e-07, No Iterations 2
time step continuity errors : sum local = 5.53595e-10, global = 6.55873e-20, cumulative = -9.47435e-19
ExecutionTime = 30.38 s  ClockTime = 34 s

Time = 2.97375

Courant Number mean: 0.257579 max: 0.951568
smoothSolver:  Solving for Ux, Initial residual = 1.24934e-06, Final residual = 1.24934e-06, No Iterations 0
smoothSolver:  Solving for Uy, Initial residual = 1.30769e-06, Final residual = 1.30769e-06, No Iterations 0
DICPCG:  Solving for p, Initial residual = 1.83726e-06, Final residual = 8.85176e-07, No Iterations 11
time step continuity errors : sum local = 6.01391e-10, global = -2.64688e-20, cumulative = -9.73904e-19
DICPCG:  Solving for p, Initial residual = 1.20222e-06, Final residual = 9.71073e-07, No Iterations 2
time step continuity errors : sum local = 6.52142e-10, global = -4.53128e-19, cumulative = -1.42703e-18
ExecutionTime = 30.39 s  ClockTime = 34 s

Time = 2.975

Courant Number mean: 0.257579 max: 0.951568
smoothSolver:  Solving for Ux, Initial residual = 1.24087e-06, Final residual = 1.24087e-06, No Iterations 0
smoothSolver:  Solving for Uy, Initial residual = 1.30942e-06, Final residual = 1.30942e-06, No Iterations 0
DICPCG:  Solving for p, Initial residual = 1.809e-06, Final residual = 9.13908e-07, No Iterations 3
time step continuity errors : sum local = 6.21945e-10, global = 1.86224e-19, cumulative = -1.24081e-18
DICPCG:  Solving for p, Initial residual = 1.24741e-06, Final residual = 7.44021e-07, No Iterations 1
time step continuity errors : sum local = 5.2383e-10, global = -1.36845e-19, cumulative = -1.37765e-18
ExecutionTime = 30.41 s  ClockTime = 34 s

Time = 2.97625

Courant Number mean: 0.257579 max: 0.951568
smoothSolver:  Solving for Ux, Initial residual = 1.2413e-06, Final residual = 1.2413e-06, No Iterations 0
smoothSolver:  Solving for Uy, Initial residual = 1.30275e-06, Final residual = 1.30275e-06, No Iterations 0
DICPCG:  Solving for p, Initial residual = 1.51661e-06, Final residual = 7.19857e-07, No Iterations 5
time step continuity errors : sum local = 5.12803e-10, global = 8.62137e-20, cumulative = -1.29144e-18
DICPCG:  Solving for p, Initial residual = 1.02248e-06, Final residual = 9.91882e-07, No Iterations 5
time step continuity errors : sum local = 6.66075e-10, global = -2.81095e-19, cumulative = -1.57254e-18
ExecutionTime = 30.42 s  ClockTime = 34 s

Time = 2.9775

Courant Number mean: 0.25758 max: 0.951568
smoothSolver:  Solving for Ux, Initial residual = 1.23777e-06, Final residual = 1.23777e-06, No Iterations 0
smoothSolver:  Solving for Uy, Initial residual = 1.29872e-06, Final residual = 1.29872e-06, No Iterations 0
DICPCG:  Solving for p, Initial residual = 1.7661e-06, Final residual = 8.75227e-07, No Iterations 4
time step continuity errors : sum local = 6.06224e-10, global = 1.41333e-19, cumulative = -1.4312e-18
DICPCG:  Solving for p, Initial residual = 1.1945e-06, Final residual = 8.10547e-07, No Iterations 9
time step continuity errors : sum local = 5.73689e-10, global = 1.27692e-19, cumulative = -1.30351e-18
ExecutionTime = 30.42 s  ClockTime = 34 s

Time = 2.97875

Courant Number mean: 0.25758 max: 0.951568
smoothSolver:  Solving for Ux, Initial residual = 1.23084e-06, Final residual = 1.23084e-06, No Iterations 0
smoothSolver:  Solving for Uy, Initial residual = 1.30024e-06, Final residual = 1.30024e-06, No Iterations 0
DICPCG:  Solving for p, Initial residual = 1.46869e-06, Final residual = 6.96012e-07, No Iterations 3
time step continuity errors : sum local = 5.12554e-10, global = 3.54405e-19, cumulative = -9.49105e-19
DICPCG:  Solving for p, Initial residual = 9.94203e-07, Final residual = 9.94203e-07, No Iterations 0
time step continuity errors : sum local = 6.78699e-10, global = -1.16412e-19, cumulative = -1.06552e-18
ExecutionTime = 30.42 s  ClockTime = 34 s

Time = 2.98

Courant Number mean: 0.25758 max: 0.951568
smoothSolver:  Solving for Ux, Initial residual = 1.23109e-06, Final residual = 1.23109e-06, No Iterations 0
smoothSolver:  Solving for Uy, Initial residual = 1.29398e-06, Final residual = 1.29398e-06, No Iterations 0
DICPCG:  Solving for p, Initial residual = 1.8495e-06, Final residual = 9.62907e-07, No Iterations 4
time step continuity errors : sum local = 6.58205e-10, global = -1.68619e-19, cumulative = -1.23414e-18
DICPCG:  Solving for p, Initial residual = 1.40143e-06, Final residual = 8.49921e-07, No Iterations 2
time step continuity errors : sum local = 6.01859e-10, global = 1.46233e-19, cumulative = -1.0879e-18
ExecutionTime = 30.43 s  ClockTime = 34 s

Time = 2.98125

Courant Number mean: 0.257581 max: 0.951568
smoothSolver:  Solving for Ux, Initial residual = 1.23052e-06, Final residual = 1.23052e-06, No Iterations 0
smoothSolver:  Solving for Uy, Initial residual = 1.2865e-06, Final residual = 1.2865e-06, No Iterations 0
DICPCG:  Solving for p, Initial residual = 1.9327e-06, Final residual = 9.55265e-07, No Iterations 11
time step continuity errors : sum local = 6.64869e-10, global = 3.09046e-20, cumulative = -1.057e-18
DICPCG:  Solving for p, Initial residual = 1.31974e-06, Final residual = 9.46214e-07, No Iterations 2
time step continuity errors : sum local = 6.62838e-10, global = -9.23402e-20, cumulative = -1.14934e-18
ExecutionTime = 30.43 s  ClockTime = 34 s

Time = 2.9825

Courant Number mean: 0.257581 max: 0.951568
smoothSolver:  Solving for Ux, Initial residual = 1.22192e-06, Final residual = 1.22192e-06, No Iterations 0
smoothSolver:  Solving for Uy, Initial residual = 1.28884e-06, Final residual = 1.28884e-06, No Iterations 0
DICPCG:  Solving for p, Initial residual = 1.8603e-06, Final residual = 8.08952e-07, No Iterations 4
time step continuity errors : sum local = 5.85173e-10, global = -2.05733e-19, cumulative = -1.35507e-18
DICPCG:  Solving for p, Initial residual = 9.89693e-07, Final residual = 9.89693e-07, No Iterations 0
time step continuity errors : sum local = 6.86702e-10, global = 2.22558e-19, cumulative = -1.13251e-18
ExecutionTime = 30.43 s  ClockTime = 34 s

Time = 2.98375

Courant Number mean: 0.257581 max: 0.951568
smoothSolver:  Solving for Ux, Initial residual = 1.22291e-06, Final residual = 1.22291e-06, No Iterations 0
smoothSolver:  Solving for Uy, Initial residual = 1.28236e-06, Final residual = 1.28236e-06, No Iterations 0
DICPCG:  Solving for p, Initial residual = 1.63979e-06, Final residual = 9.47728e-07, No Iterations 6
time step continuity errors : sum local = 6.62761e-10, global = -4.10272e-20, cumulative = -1.17354e-18
DICPCG:  Solving for p, Initial residual = 1.40724e-06, Final residual = 8.19893e-07, No Iterations 3
time step continuity errors : sum local = 5.93506e-10, global = 3.29755e-19, cumulative = -8.43786e-19
ExecutionTime = 30.44 s  ClockTime = 34 s

Time = 2.985

Courant Number mean: 0.257582 max: 0.951568
smoothSolver:  Solving for Ux, Initial residual = 1.22015e-06, Final residual = 1.22015e-06, No Iterations 0
smoothSolver:  Solving for Uy, Initial residual = 1.27748e-06, Final residual = 1.27748e-06, No Iterations 0
DICPCG:  Solving for p, Initial residual = 1.42792e-06, Final residual = 9.00965e-07, No Iterations 9
time step continuity errors : sum local = 6.46988e-10, global = 2.0327e-20, cumulative = -8.23459e-19
DICPCG:  Solving for p, Initial residual = 1.14879e-06, Final residual = 6.78408e-07, No Iterations 1
time step continuity errors : sum local = 5.23765e-10, global = -1.55805e-19, cumulative = -9.79264e-19
ExecutionTime = 30.44 s  ClockTime = 34 s

Time = 2.98625

Courant Number mean: 0.257582 max: 0.951568
smoothSolver:  Solving for Ux, Initial residual = 1.21345e-06, Final residual = 1.21345e-06, No Iterations 0
smoothSolver:  Solving for Uy, Initial residual = 1.27882e-06, Final residual = 1.27882e-06, No Iterations 0
DICPCG:  Solving for p, Initial residual = 1.2748e-06, Final residual = 9.93307e-07, No Iterations 1
time step continuity errors : sum local = 7.0082e-10, global = -1.54284e-20, cumulative = -9.94693e-19
DICPCG:  Solving for p, Initial residual = 1.34849e-06, Final residual = 8.39462e-07, No Iterations 4
time step continuity errors : sum local = 6.16291e-10, global = 1.57258e-20, cumulative = -9.78967e-19
ExecutionTime = 30.44 s  ClockTime = 34 s

Time = 2.9875

Courant Number mean: 0.257582 max: 0.951568
smoothSolver:  Solving for Ux, Initial residual = 1.21333e-06, Final residual = 1.21333e-06, No Iterations 0
smoothSolver:  Solving for Uy, Initial residual = 1.27275e-06, Final residual = 1.27275e-06, No Iterations 0
DICPCG:  Solving for p, Initial residual = 1.52436e-06, Final residual = 9.47324e-07, No Iterations 1
time step continuity errors : sum local = 6.77256e-10, global = 2.78403e-19, cumulative = -7.00564e-19
DICPCG:  Solving for p, Initial residual = 1.27331e-06, Final residual = 9.35247e-07, No Iterations 9
time step continuity errors : sum local = 6.71276e-10, global = 6.93641e-20, cumulative = -6.312e-19
ExecutionTime = 30.45 s  ClockTime = 34 s

Time = 2.98875

Courant Number mean: 0.257582 max: 0.951568
smoothSolver:  Solving for Ux, Initial residual = 1.20659e-06, Final residual = 1.20659e-06, No Iterations 0
smoothSolver:  Solving for Uy, Initial residual = 1.27069e-06, Final residual = 1.27069e-06, No Iterations 0
DICPCG:  Solving for p, Initial residual = 1.61724e-06, Final residual = 9.12552e-07, No Iterations 2
time step continuity errors : sum local = 6.62341e-10, global = -1.75645e-20, cumulative = -6.48765e-19
DICPCG:  Solving for p, Initial residual = 1.39613e-06, Final residual = 9.56098e-07, No Iterations 2
time step continuity errors : sum local = 6.86836e-10, global = -1.25026e-19, cumulative = -7.73791e-19
ExecutionTime = 30.45 s  ClockTime = 34 s

Time = 2.99

Courant Number mean: 0.257583 max: 0.951568
smoothSolver:  Solving for Ux, Initial residual = 1.20639e-06, Final residual = 1.20639e-06, No Iterations 0
smoothSolver:  Solving for Uy, Initial residual = 1.26551e-06, Final residual = 1.26551e-06, No Iterations 0
DICPCG:  Solving for p, Initial residual = 1.73184e-06, Final residual = 8.86947e-07, No Iterations 4
time step continuity errors : sum local = 6.49733e-10, global = -7.35091e-20, cumulative = -8.473e-19
DICPCG:  Solving for p, Initial residual = 1.23108e-06, Final residual = 9.90566e-07, No Iterations 8
time step continuity errors : sum local = 7.10789e-10, global = -1.68694e-19, cumulative = -1.01599e-18
ExecutionTime = 30.46 s  ClockTime = 34 s

Time = 2.99125

Courant Number mean: 0.257583 max: 0.951568
smoothSolver:  Solving for Ux, Initial residual = 1.2007e-06, Final residual = 1.2007e-06, No Iterations 0
smoothSolver:  Solving for Uy, Initial residual = 1.26663e-06, Final residual = 1.26663e-06, No Iterations 0
DICPCG:  Solving for p, Initial residual = 1.68712e-06, Final residual = 9.17386e-07, No Iterations 3
time step continuity errors : sum local = 6.74182e-10, global = -1.04337e-19, cumulative = -1.12033e-18
DICPCG:  Solving for p, Initial residual = 1.41607e-06, Final residual = 9.93857e-07, No Iterations 1
time step continuity errors : sum local = 7.15549e-10, global = -1.68449e-19, cumulative = -1.28878e-18
ExecutionTime = 30.46 s  ClockTime = 34 s

Time = 2.9925

Courant Number mean: 0.257583 max: 0.951568
smoothSolver:  Solving for Ux, Initial residual = 1.19968e-06, Final residual = 1.19968e-06, No Iterations 0
smoothSolver:  Solving for Uy, Initial residual = 1.26155e-06, Final residual = 1.26155e-06, No Iterations 0
DICPCG:  Solving for p, Initial residual = 1.95724e-06, Final residual = 9.94665e-07, No Iterations 5
time step continuity errors : sum local = 7.17204e-10, global = 1.06743e-19, cumulative = -1.18204e-18
DICPCG:  Solving for p, Initial residual = 1.3969e-06, Final residual = 8.8379e-07, No Iterations 2
time step continuity errors : sum local = 6.57432e-10, global = 1.78395e-19, cumulative = -1.00364e-18
ExecutionTime = 30.46 s  ClockTime = 34 s

Time = 2.99375

Courant Number mean: 0.257584 max: 0.951568
smoothSolver:  Solving for Ux, Initial residual = 1.19897e-06, Final residual = 1.19897e-06, No Iterations 0
smoothSolver:  Solving for Uy, Initial residual = 1.25311e-06, Final residual = 1.25311e-06, No Iterations 0
DICPCG:  Solving for p, Initial residual = 1.89262e-06, Final residual = 9.85437e-07, No Iterations 8
time step continuity errors : sum local = 7.15369e-10, global = -6.18783e-20, cumulative = -1.06552e-18
DICPCG:  Solving for p, Initial residual = 1.35988e-06, Final residual = 8.81927e-07, No Iterations 5
time step continuity errors : sum local = 6.62384e-10, global = -6.18209e-20, cumulative = -1.12734e-18
ExecutionTime = 30.47 s  ClockTime = 34 s

Time = 2.995

Courant Number mean: 0.257584 max: 0.951568
smoothSolver:  Solving for Ux, Initial residual = 1.19174e-06, Final residual = 1.19174e-06, No Iterations 0
smoothSolver:  Solving for Uy, Initial residual = 1.25692e-06, Final residual = 1.25692e-06, No Iterations 0
DICPCG:  Solving for p, Initial residual = 1.76e-06, Final residual = 8.78313e-07, No Iterations 2
time step continuity errors : sum local = 6.62947e-10, global = 2.35876e-20, cumulative = -1.10375e-18
DICPCG:  Solving for p, Initial residual = 1.35988e-06, Final residual = 9.04104e-07, No Iterations 4
time step continuity errors : sum local = 6.75105e-10, global = -4.01135e-19, cumulative = -1.50489e-18
ExecutionTime = 30.47 s  ClockTime = 34 s

Time = 2.99625

Courant Number mean: 0.257584 max: 0.951568
smoothSolver:  Solving for Ux, Initial residual = 1.19113e-06, Final residual = 1.19113e-06, No Iterations 0
smoothSolver:  Solving for Uy, Initial residual = 1.24899e-06, Final residual = 1.24899e-06, No Iterations 0
DICPCG:  Solving for p, Initial residual = 1.66389e-06, Final residual = 9.75968e-07, No Iterations 57
time step continuity errors : sum local = 5.45079e-10, global = 8.55188e-20, cumulative = -1.41937e-18
DICPCG:  Solving for p, Initial residual = 1.41729e-06, Final residual = 9.45588e-07, No Iterations 1
time step continuity errors : sum local = 5.44693e-10, global = -3.60984e-20, cumulative = -1.45547e-18
ExecutionTime = 30.48 s  ClockTime = 34 s

Time = 2.9975

Courant Number mean: 0.257584 max: 0.951568
smoothSolver:  Solving for Ux, Initial residual = 1.17426e-06, Final residual = 1.17426e-06, No Iterations 0
smoothSolver:  Solving for Uy, Initial residual = 1.27933e-06, Final residual = 1.27933e-06, No Iterations 0
DICPCG:  Solving for p, Initial residual = 2.00008e-06, Final residual = 9.52553e-07, No Iterations 65
time step continuity errors : sum local = 5.30886e-10, global = 2.67999e-19, cumulative = -1.18747e-18
DICPCG:  Solving for p, Initial residual = 1.26672e-06, Final residual = 9.13926e-07, No Iterations 8
time step continuity errors : sum local = 5.29682e-10, global = -1.09032e-19, cumulative = -1.2965e-18
ExecutionTime = 30.49 s  ClockTime = 34 s

Time = 2.99875

Courant Number mean: 0.257585 max: 0.951568
smoothSolver:  Solving for Ux, Initial residual = 1.19572e-06, Final residual = 1.19572e-06, No Iterations 0
smoothSolver:  Solving for Uy, Initial residual = 1.24004e-06, Final residual = 1.24004e-06, No Iterations 0
DICPCG:  Solving for p, Initial residual = 1.76407e-06, Final residual = 8.75119e-07, No Iterations 4
time step continuity errors : sum local = 5.26366e-10, global = 8.65423e-20, cumulative = -1.20996e-18
DICPCG:  Solving for p, Initial residual = 1.23704e-06, Final residual = 9.34751e-07, No Iterations 12
time step continuity errors : sum local = 5.90236e-10, global = -3.34935e-19, cumulative = -1.54489e-18
ExecutionTime = 30.5 s  ClockTime = 34 s

Time = 3

Courant Number mean: 0.257585 max: 0.951568
smoothSolver:  Solving for Ux, Initial residual = 1.18111e-06, Final residual = 1.18111e-06, No Iterations 0
smoothSolver:  Solving for Uy, Initial residual = 1.24677e-06, Final residual = 1.24677e-06, No Iterations 0
DICPCG:  Solving for p, Initial residual = 1.76068e-06, Final residual = 9.72546e-07, No Iterations 4
time step continuity errors : sum local = 6.27435e-10, global = -3.53579e-19, cumulative = -1.89847e-18
DICPCG:  Solving for p, Initial residual = 1.24379e-06, Final residual = 8.91275e-07, No Iterations 1
time step continuity errors : sum local = 5.98375e-10, global = 2.32905e-19, cumulative = -1.66557e-18
ExecutionTime = 30.51 s  ClockTime = 34 s

End

